/tools/ansys/v150/fluent/fluent15.0.0/bin/fluent -r15.0.0 -p -g 3ddp -t36 -cnf=pnodes -i tach.jou -mpi=openmpi
/tools/ansys/v150/fluent/fluent15.0.0/cortex/lnamd64/cortex.15.0.0 -f fluent -g -i tach.jou (fluent "3ddp -pethernet  -host -alnamd64 -r15.0.0 -t36 -mpi=openmpi -cnf=pnodes -path/tools/ansys/v150/fluent")
Loading "/tools/ansys/v150/fluent/fluent15.0.0/lib/fluent.dmp.114-64"
Done.
/tools/ansys/v150/fluent/fluent15.0.0/bin/fluent -r15.0.0 3ddp -pethernet -host -alnamd64 -t36 -mpi=openmpi -cnf=pnodes -path/tools/ansys/v150/fluent -cx cpu08.aero.local:33838:35238
Starting /tools/ansys/v150/fluent/fluent15.0.0/lnamd64/3ddp_host/fluent.15.0.0 host -cx cpu08.aero.local:33838:35238 "(list (rpsetvar (QUOTE parallel/function) "fluent 3ddp -flux -node -alnamd64 -r15.0.0 -t36 -pethernet -mpi=openmpi -cnf=pnodes ") (rpsetvar (QUOTE parallel/rhost) "") (rpsetvar (QUOTE parallel/ruser) "") (rpsetvar (QUOTE parallel/nprocs_string) "36") (rpsetvar (QUOTE parallel/auto-spawn?) #t) (rpsetvar (QUOTE parallel/trace-level) 0) (rpsetvar (QUOTE parallel/remote-shell) 0) (rpsetvar (QUOTE parallel/path) "/tools/ansys/v150/fluent") (rpsetvar (QUOTE parallel/hostsfile) "pnodes") )"

     Welcome to ANSYS Fluent 15.0.0

     Copyright 2013 ANSYS, Inc.. All Rights Reserved.
     Unauthorized use, distribution or duplication is prohibited.
     This product is subject to U.S. laws governing export and re-export.
     For full Legal Notice, see documentation.

Build Time: Oct 24 2013 13:23:15 EDT  Build Id: 10399
 
Loading "/tools/ansys/v150/fluent/fluent15.0.0/lib/flprim.dmp.1119-64"
Done.

     --------------------------------------------------------------
     This is an academic version of ANSYS FLUENT. Usage of this product
     license is limited to the terms and conditions specified in your ANSYS
     license form, additional terms section.
     --------------------------------------------------------------
Host spawning Node 0 on machine "cpu08.aero.local" (unix).
/tools/ansys/v150/fluent/fluent15.0.0/bin/fluent -r15.0.0 3ddp -flux -node -alnamd64 -t36 -pethernet -mpi=openmpi -cnf=pnodes -mport 192.168.2.208:192.168.2.208:40732:0
Starting fixfiledes /tools/ansys/v150/fluent/fluent15.0.0/multiport/mpi/lnamd64/openmpi/bin/mpirun --mca btl self,sm,tcp --prefix /tools/ansys/v150/fluent/fluent15.0.0/multiport/mpi/lnamd64/openmpi --x LD_LIBRARY_PATH -x FLUENT_PROD_DIR=/tools/ansys/v150/fluent/fluent15.0.0 -np 36 --hostfile /tmp/fluent-appfile.49299 /tools/ansys/v150/fluent/fluent15.0.0/lnamd64/3ddp_node/fluent_mpi.15.0.0 node -mpiw openmpi -pic ethernet -mport 192.168.2.208:192.168.2.208:40732:0

------------------------------------------------------------------------------------
ID     Comm.   Hostname              O.S.        PID     Mach ID HW ID   Name        
------------------------------------------------------------------------------------
host   net     cpu08.aero.local      Linux-64    49149   0       12      Fluent Host 
n35    openmpi cpu08.aero.local      Linux-64    50132   0       35      Fluent Node 
n34    openmpi cpu08.aero.local      Linux-64    50131   0       34      Fluent Node 
n33    openmpi cpu08.aero.local      Linux-64    50130   0       33      Fluent Node 
n32    openmpi cpu08.aero.local      Linux-64    50129   0       32      Fluent Node 
n31    openmpi cpu08.aero.local      Linux-64    50128   0       31      Fluent Node 
n30    openmpi cpu08.aero.local      Linux-64    50127   0       30      Fluent Node 
n29    openmpi cpu08.aero.local      Linux-64    50126   0       29      Fluent Node 
n28    openmpi cpu08.aero.local      Linux-64    50125   0       28      Fluent Node 
n27    openmpi cpu08.aero.local      Linux-64    50124   0       27      Fluent Node 
n26    openmpi cpu08.aero.local      Linux-64    50123   0       26      Fluent Node 
n25    openmpi cpu08.aero.local      Linux-64    50122   0       25      Fluent Node 
n24    openmpi cpu08.aero.local      Linux-64    50121   0       24      Fluent Node 
n23    openmpi cpu08.aero.local      Linux-64    50120   0       23      Fluent Node 
n22    openmpi cpu08.aero.local      Linux-64    50119   0       22      Fluent Node 
n21    openmpi cpu08.aero.local      Linux-64    50118   0       21      Fluent Node 
n20    openmpi cpu08.aero.local      Linux-64    50117   0       20      Fluent Node 
n19    openmpi cpu08.aero.local      Linux-64    50116   0       19      Fluent Node 
n18    openmpi cpu08.aero.local      Linux-64    50115   0       18      Fluent Node 
n17    openmpi cpu08.aero.local      Linux-64    50114   0       17      Fluent Node 
------------------------------------------------------------------------------------
ID     Comm.   Hostname              O.S.        PID     Mach ID HW ID   Name        
------------------------------------------------------------------------------------
n16    openmpi cpu08.aero.local      Linux-64    50113   0       16      Fluent Node 
n15    openmpi cpu08.aero.local      Linux-64    50112   0       15      Fluent Node 
n14    openmpi cpu08.aero.local      Linux-64    50111   0       14      Fluent Node 
n13    openmpi cpu08.aero.local      Linux-64    50110   0       13      Fluent Node 
n12    openmpi cpu08.aero.local      Linux-64    50109   0       12      Fluent Node 
n11    openmpi cpu08.aero.local      Linux-64    50108   0       11      Fluent Node 
n10    openmpi cpu08.aero.local      Linux-64    50107   0       10      Fluent Node 
n9     openmpi cpu08.aero.local      Linux-64    50106   0       9       Fluent Node 
n8     openmpi cpu08.aero.local      Linux-64    50105   0       8       Fluent Node 
n7     openmpi cpu08.aero.local      Linux-64    50104   0       7       Fluent Node 
n6     openmpi cpu08.aero.local      Linux-64    50103   0       6       Fluent Node 
n5     openmpi cpu08.aero.local      Linux-64    50102   0       5       Fluent Node 
n4     openmpi cpu08.aero.local      Linux-64    50101   0       4       Fluent Node 
n3     openmpi cpu08.aero.local      Linux-64    50100   0       3       Fluent Node 
n2     openmpi cpu08.aero.local      Linux-64    50099   0       2       Fluent Node 
n1     openmpi cpu08.aero.local      Linux-64    50098   0       1       Fluent Node 
n0*    openmpi cpu08.aero.local      Linux-64    50097   0       0       Fluent Node 

Selected system interconnect: ethernet
------------------------------------------------------------------------------------


Reading journal file tach.jou...

> rc /mnt/fhgfs/users/bolszanski/Feniks/Medium_Ma_3_85_FMG.cas 
Multicore SMT processors detected. Processor affinity set!

Reading "/mnt/fhgfs/users/bolszanski/Feniks/Medium_Ma_3_85_FMG.cas"...
Buffering for file scan...

 7516704 hexahedral cells, zone  1, binary.
22284264 quadrilateral interior faces, zone 16, binary.
    6912 quadrilateral wall faces, zone  2, binary.
   92544 quadrilateral pressure-far-field faces, zone  5, binary.
    6392 quadrilateral wall faces, zone  6, binary.
   45744 quadrilateral wall faces, zone  7, binary.
  170527 quadrilateral interior faces, zone  9, binary.
    3456 quadrilateral wall faces, zone  3, binary.
    7104 quadrilateral wall faces, zone  4, binary.
    9408 quadrilateral wall faces, zone  8, binary.
    6392 quadrilateral wall faces, zone 10, binary.
    6392 quadrilateral wall faces, zone 11, binary.
    6392 quadrilateral wall faces, zone 12, binary.
 7612038 nodes, binary.
 7612038 node flags, binary.

Building...
     mesh
	auto partitioning mesh by Metis (fast),
	distributing mesh
		parts....................................,
		faces....................................,
		nodes....................................,
		cells....................................,
     materials,
     interface,
     domains,
	mixture
     zones,
	ster4
	ster3
	ster2
	zapalnik
	korpus
	glowica
	int_periodic
	tail
	ster1
	pressurefarfield
	gardziel_dyszy
	int_solid
	solid
     parallel,
Done.


> /solve/set/discretization-scheme/amg-c 1 

> /solve/set/discretization-scheme/k 1 

> /solve/set/discretization-scheme/omega 1

> /solve/monitors/set-average-over (cd-1 cl-1 cy-1 cm-1)
cd-1 250 

> /solve/monitors/set-average-over (cd-1 cl-1 cy-1 cm-1)
cl-1 250 

> /solve/monitors/set-average-over (cd-1 cl-1 cy-1 cm-1)
cy-1 250 

> /solve/monitors/set-average-over (cd-1 cl-1 cy-1 cm-1)
cm-1 250 

> /solve/monitors/convergence/add-edit (cd-1 cl-1 cy-1 cm-1)
cd-1 Editing cd-1
1e-06 0 5 yes no 

> /solve/monitors/convergence/add-edit (cd-1 cl-1 cy-1 cm-1)
cl-1 Editing cl-1
1e-06 0 5 yes no 

> /solve/monitors/convergence/add-edit (cd-1 cl-1 cy-1 cm-1)
cy-1 Editing cy-1
1e-06 0 5 yes no 

> /solve/monitors/convergence/add-edit (cd-1 cl-1 cy-1 cm-1)
cm-1 Editing cm-1
1e-06 0 5 yes no 

> /define/boundary-conditions/list-zones   id  name                       type                material              kind
----  -------------------------  ------------------  --------------------  ----
   1  solid                      fluid               air                   cell
  16  int_solid                  interior                                  face
   2  gardziel_dyszy             wall                air                   face
   5  pressurefarfield           pressure-far-field                        face
   6  ster1                      wall                air                   face
   7  tail                       wall                air                   face
   9  int_periodic               interior                                  face
   3  glowica                    wall                air                   face
   4  korpus                     wall                air                   face
   8  zapalnik                   wall                air                   face
  10  ster2                      wall                air                   face
  11  ster3                      wall                air                   face
  12  ster4                      wall                air                   face


> /define/boundary-conditions/pressure-far-field (pressurefarfield)
pressurefarfield no 89875. no 1.10 no 281.65 yes no -1. no 5e-5 no 0. no no yes 0.1 50. 

> /solve/set/set-solution-steering invalid command [set-solution-steering]
100 100 30 0.25 2 0.75 5 1000 1000 1000 1000 1000 0.75 yes 

> /solve/monitors/force/set-drag-monitor cd-1 yes gardziel_dyszy glowica korpus ster1 ster2 ster3 ster4 tail zapalnik () yes yes "cd-1-history" yes 2 no 1. 0. 0. 

> /solve/monitors/force/set-lift-monitor cl-1 yes gardziel_dyszy glowica korpus ster1 ster2 ster3 ster4 tail zapalnik () yes yes "cl-1-history" yes 3 no 0. 1. 0. 

> /solve/monitors/force/set-lift-monitor cy-1 yes gardziel_dyszy glowica korpus ster1 ster2 ster3 ster4 tail zapalnik () yes yes "cy-1-history" no no 0. 0. -1. 

> /solve/monitors/force/list-monitors 
 Monitor   Plot Print Write Window X-comp Y-comp Z-comp X-mcomp Y-mcomp Z-mcomp M-axis (on Wall)
    cd-1   #t    #t    #t      2      1      0      0      #f      #f      #f     #f (zapalnik tail ster4 ster3 ster2 ster1 korpus glowica gardziel_dyszy)
    cl-1   #t    #t    #t      3      0      1      0      #f      #f      #f     #f (zapalnik tail ster4 ster3 ster2 ster1 korpus glowica gardziel_dyszy)
    cy-1   #f    #t    #t     -1      0      0     -1      #f      #f      #f     #f (zapalnik tail ster4 ster3 ster2 ster1 korpus glowica gardziel_dyszy)
      cm-1   #t    #t    #t      4     #f     #f     #f -1.1323       0       0 (0 0 1) (gardziel_dyszy glowica korpus ster1 ster2 ster3 ster4 tail zapalnik)



> /report/reference-values/compute/pressure-far-field (pressurefarfield)
pressurefarfield 

> /report/reference-values/list         area: 0.011613337
     density: 1.1117059
    enthalpy: 355813.12
      length: 2.6712999
    pressure: 89875
 temperature: 281.65
    velocity: 370.04819
   viscosity: 1.7894e-05
        zone: solid


> /solve/initialize/initialize-flow

> /solve/iterate 10000

Creating multigrid levels... 
 Grid Level  0: 7516704 cells, 22645527 faces, 7612038 nodes;  36 clusters
 Grid Level  1: 915016 cells, 11575468 faces, 7612038 nodes;  36 clusters
 Grid Level  1: 915016 cells, 4403335 faces,      0 nodes
 Grid Level  2: 196900 cells, 7835391 faces, 7612038 nodes;  36 clusters
 Grid Level  2: 196900 cells, 1272783 faces,      0 nodes
 Grid Level  3:  49131 cells, 5887154 faces, 7612038 nodes;  36 clusters
 Grid Level  3:  49131 cells, 379885 faces,      0 nodes
 Grid Level  4:  12992 cells, 4563143 faces, 7612038 nodes;  36 clusters
 Grid Level  4:  12992 cells, 115496 faces,      0 nodes
 Grid Level  5:   3530 cells, 3542408 faces, 7612038 nodes;  36 clusters
 Grid Level  5:   3530 cells,  35308 faces,      0 nodes
Done.


FMG: Converge FAS on level 5 [eps = 0.001000, max-iter=1000]
.......... -> Normalized residual = 0.183583 
.......... -> Normalized residual = 0.223379 
.......... -> Normalized residual = 0.100415 
.......... -> Normalized residual = 0.0328412 
.......... -> Normalized residual = 0.0237766 
.......... -> Normalized residual = 0.0171826 
.......... -> Normalized residual = 0.0109441 
.......... -> Normalized residual = 0.00806269 
.......... -> Normalized residual = 0.00604054 
.......... -> Normalized residual = 0.00546113 
.......... -> Normalized residual = 0.00600042 
.......... -> Normalized residual = 0.0059658 
.......... -> Normalized residual = 0.00561884 
.......... -> Normalized residual = 0.00508048 
.......... -> Normalized residual = 0.00411192 
.......... -> Normalized residual = 0.00317784 
.......... -> Normalized residual = 0.00272489 
.......... -> Normalized residual = 0.00264942 
.......... -> Normalized residual = 0.00263073 
.......... -> Normalized residual = 0.00250575 
.......... -> Normalized residual = 0.00227069 
.......... -> Normalized residual = 0.00204103 
.......... -> Normalized residual = 0.0018889 
.......... -> Normalized residual = 0.00183259 
.......... -> Normalized residual = 0.00186162 
.......... -> Normalized residual = 0.00190814 
.......... -> Normalized residual = 0.0019501 
.......... -> Normalized residual = 0.00194509 
.......... -> Normalized residual = 0.00196699 
.......... -> Normalized residual = 0.00214628 
.......... -> Normalized residual = 0.00201595 
.......... -> Normalized residual = 0.00200315 
.......... -> Normalized residual = 0.00201871 
.......... -> Normalized residual = 0.00168876 
.......... -> Normalized residual = 0.00183627 
.......... -> Normalized residual = 0.0017527 
.......... -> Normalized residual = 0.00183107 
.......... -> Normalized residual = 0.00229753 
.......... -> Normalized residual = 0.00166039 
.......... -> Normalized residual = 0.00160904 
.......... -> Normalized residual = 0.0015854 
.......... -> Normalized residual = 0.0015584 
.......... -> Normalized residual = 0.00159919 
.......... -> Normalized residual = 0.00154651 
.......... -> Normalized residual = 0.00138605 
.......... -> Normalized residual = 0.00126414 
.......... -> Normalized residual = 0.00121345 
.......... -> Normalized residual = 0.00118381 
.......... -> Normalized residual = 0.00116627 
.......... -> Normalized residual = 0.00116161 
.......... -> Normalized residual = 0.00117145 
.......... -> Normalized residual = 0.00118008 
.......... -> Normalized residual = 0.00117806 
.......... -> Normalized residual = 0.00117767 
.......... -> Normalized residual = 0.00117212 
.......... -> Normalized residual = 0.00117875 
.......... -> Normalized residual = 0.00118599 
.......... -> Normalized residual = 0.00118954 
.......... -> Normalized residual = 0.00120385 
.......... -> Normalized residual = 0.00121248 
.......... -> Normalized residual = 0.00122172 
.......... -> Normalized residual = 0.00124036 
.......... -> Normalized residual = 0.00124578 
.......... -> Normalized residual = 0.00124948 
.......... -> Normalized residual = 0.00125117 
.......... -> Normalized residual = 0.00124577 
.......... -> Normalized residual = 0.00124103 
.......... -> Normalized residual = 0.00123749 
.......... -> Normalized residual = 0.00122244 
.......... -> Normalized residual = 0.00121506 
.......... -> Normalized residual = 0.00118516 
.......... -> Normalized residual = 0.00116392 
.......... -> Normalized residual = 0.00114445 
.......... -> Normalized residual = 0.00111406 
.......... -> Normalized residual = 0.00107431 
.......... -> Normalized residual = 0.00104206 
..........
 FMG: FAS converged.

FMG: Finished work on level = 5 

FMG: Interpolate solution on next level .. . end 


FMG: Converge FAS on level 4 [eps = 0.001000, max-iter=1000]
.......... -> Normalized residual = 0.0421271 
.......... -> Normalized residual = 0.0225445 
.......... -> Normalized residual = 0.0142823 
.......... -> Normalized residual = 0.0110417 
.......... -> Normalized residual = 0.0114624 
.......... -> Normalized residual = 0.0109791 
.......... -> Normalized residual = 0.0101214 
.......... -> Normalized residual = 0.00919776 
.......... -> Normalized residual = 0.00852336 
.......... -> Normalized residual = 0.0077799 
.......... -> Normalized residual = 0.0071792 
.......... -> Normalized residual = 0.00683467 
.......... -> Normalized residual = 0.00663513 
.......... -> Normalized residual = 0.00639395 
.......... -> Normalized residual = 0.00611491 
.......... -> Normalized residual = 0.00580144 
.......... -> Normalized residual = 0.00550491 
.......... -> Normalized residual = 0.00526064 
.......... -> Normalized residual = 0.00507783 
.......... -> Normalized residual = 0.0049021 
.......... -> Normalized residual = 0.00468083 
.......... -> Normalized residual = 0.00448402 
.......... -> Normalized residual = 0.00428401 
.......... -> Normalized residual = 0.00409716 
.......... -> Normalized residual = 0.00389035 
.......... -> Normalized residual = 0.00374909 
.......... -> Normalized residual = 0.00359167 
.......... -> Normalized residual = 0.00343259 
.......... -> Normalized residual = 0.00327736 
.......... -> Normalized residual = 0.00311789 
.......... -> Normalized residual = 0.0029799 
.......... -> Normalized residual = 0.00282746 
.......... -> Normalized residual = 0.00273066 
.......... -> Normalized residual = 0.00262323 
.......... -> Normalized residual = 0.00250242 
.......... -> Normalized residual = 0.00239119 
.......... -> Normalized residual = 0.00228265 
.......... -> Normalized residual = 0.00218825 
.......... -> Normalized residual = 0.00210988 
.......... -> Normalized residual = 0.00203207 
.......... -> Normalized residual = 0.00197464 
.......... -> Normalized residual = 0.00191983 
.......... -> Normalized residual = 0.00184704 
.......... -> Normalized residual = 0.00177919 
.......... -> Normalized residual = 0.00172189 
.......... -> Normalized residual = 0.0016658 
.......... -> Normalized residual = 0.00163735 
.......... -> Normalized residual = 0.00160316 
.......... -> Normalized residual = 0.00156398 
.......... -> Normalized residual = 0.00152714 
.......... -> Normalized residual = 0.00149346 
.......... -> Normalized residual = 0.00145884 
.......... -> Normalized residual = 0.0014096 
.......... -> Normalized residual = 0.00138038 
.......... -> Normalized residual = 0.00135768 
.......... -> Normalized residual = 0.0013196 
.......... -> Normalized residual = 0.00129712 
.......... -> Normalized residual = 0.00125902 
.......... -> Normalized residual = 0.00124549 
.......... -> Normalized residual = 0.00120911 
.......... -> Normalized residual = 0.00120015 
.......... -> Normalized residual = 0.00115987 
.......... -> Normalized residual = 0.00114809 
.......... -> Normalized residual = 0.00111728 
.......... -> Normalized residual = 0.00110134 
.......... -> Normalized residual = 0.00107041 
.......... -> Normalized residual = 0.00106043 
.......... -> Normalized residual = 0.00103408 
.......... -> Normalized residual = 0.00103079 
..........
 FMG: FAS converged.

FMG: Finished work on level = 4 

FMG: Interpolate solution on next level .. . end 


FMG: Converge FAS on level 3 [eps = 0.001000, max-iter=1000]
.......... -> Normalized residual = 0.0391577 
.......... -> Normalized residual = 0.0184103 
.......... -> Normalized residual = 0.0130861 
.......... -> Normalized residual = 0.0118551 
.......... -> Normalized residual = 0.0106658 
.......... -> Normalized residual = 0.00881571 
.......... -> Normalized residual = 0.00736854 
.......... -> Normalized residual = 0.00660941 
.......... -> Normalized residual = 0.00596613 
.......... -> Normalized residual = 0.00528659 
.......... -> Normalized residual = 0.00478513 
.......... -> Normalized residual = 0.00447496 
.......... -> Normalized residual = 0.004285 
.......... -> Normalized residual = 0.00417652 
.......... -> Normalized residual = 0.00400458 
.......... -> Normalized residual = 0.00375128 
.......... -> Normalized residual = 0.0034903 
.......... -> Normalized residual = 0.00325956 
.......... -> Normalized residual = 0.00305416 
.......... -> Normalized residual = 0.00288179 
.......... -> Normalized residual = 0.00273481 
.......... -> Normalized residual = 0.0026069 
.......... -> Normalized residual = 0.00250884 
.......... -> Normalized residual = 0.00241569 
.......... -> Normalized residual = 0.00232094 
.......... -> Normalized residual = 0.00222358 
.......... -> Normalized residual = 0.00213407 
.......... -> Normalized residual = 0.00204411 
.......... -> Normalized residual = 0.0019508 
.......... -> Normalized residual = 0.00188352 
.......... -> Normalized residual = 0.00181485 
.......... -> Normalized residual = 0.00175148 
.......... -> Normalized residual = 0.00168535 
.......... -> Normalized residual = 0.00162375 
.......... -> Normalized residual = 0.00157179 
.......... -> Normalized residual = 0.00152724 
.......... -> Normalized residual = 0.00148543 
.......... -> Normalized residual = 0.00144178 
.......... -> Normalized residual = 0.00139852 
.......... -> Normalized residual = 0.00135422 
.......... -> Normalized residual = 0.00130562 
.......... -> Normalized residual = 0.00126615 
.......... -> Normalized residual = 0.0012302 
.......... -> Normalized residual = 0.00120153 
.......... -> Normalized residual = 0.001168 
.......... -> Normalized residual = 0.00113665 
.......... -> Normalized residual = 0.00109859 
.......... -> Normalized residual = 0.0010642 
.......... -> Normalized residual = 0.00103567 
.......... -> Normalized residual = 0.00101146 
..
 FMG: FAS converged.

FMG: Finished work on level = 3 

FMG: Interpolate solution on next level .. . end 


FMG: Converge FAS on level 2 [eps = 0.001000, max-iter=1000]
.......... -> Normalized residual = 0.0572824 
.......... -> Normalized residual = 0.0239953 
.......... -> Normalized residual = 0.016206 
.......... -> Normalized residual = 0.0112673 
.......... -> Normalized residual = 0.00924375 
.......... -> Normalized residual = 0.0100393 
.......... -> Normalized residual = 0.0112623 
.......... -> Normalized residual = 0.0097214 
.......... -> Normalized residual = 0.00861609 
.......... -> Normalized residual = 0.00824245 
.......... -> Normalized residual = 0.00768612 
.......... -> Normalized residual = 0.00665265 
.......... -> Normalized residual = 0.00545247 
.......... -> Normalized residual = 0.00455415 
.......... -> Normalized residual = 0.00409731 
.......... -> Normalized residual = 0.00386025 
.......... -> Normalized residual = 0.00370835 
.......... -> Normalized residual = 0.00371752 
.......... -> Normalized residual = 0.00389078 
.......... -> Normalized residual = 0.00397379 
.......... -> Normalized residual = 0.00379333 
.......... -> Normalized residual = 0.00338128 
.......... -> Normalized residual = 0.00292097 
.......... -> Normalized residual = 0.00255058 
.......... -> Normalized residual = 0.0023362 
.......... -> Normalized residual = 0.0022039 
.......... -> Normalized residual = 0.00213616 
.......... -> Normalized residual = 0.00211049 
.......... -> Normalized residual = 0.00212328 
.......... -> Normalized residual = 0.00213249 
.......... -> Normalized residual = 0.00208206 
.......... -> Normalized residual = 0.00196097 
.......... -> Normalized residual = 0.00182262 
.......... -> Normalized residual = 0.00169722 
.......... -> Normalized residual = 0.00160429 
.......... -> Normalized residual = 0.00154181 
.......... -> Normalized residual = 0.00150223 
.......... -> Normalized residual = 0.00148597 
.......... -> Normalized residual = 0.00147053 
.......... -> Normalized residual = 0.00144939 
.......... -> Normalized residual = 0.00143182 
.......... -> Normalized residual = 0.0013953 
.......... -> Normalized residual = 0.0013457 
.......... -> Normalized residual = 0.00129566 
.......... -> Normalized residual = 0.00125614 
.......... -> Normalized residual = 0.00121874 
.......... -> Normalized residual = 0.00119392 
.......... -> Normalized residual = 0.00117651 
.......... -> Normalized residual = 0.00116912 
.......... -> Normalized residual = 0.00115374 
.......... -> Normalized residual = 0.00112822 
.......... -> Normalized residual = 0.00110902 
.......... -> Normalized residual = 0.00108998 
.......... -> Normalized residual = 0.00106415 
.......... -> Normalized residual = 0.00104617 
.......... -> Normalized residual = 0.00102944 
.......... -> Normalized residual = 0.00101459 
........
 FMG: FAS converged.

FMG: Finished work on level = 2 

FMG: Interpolate solution on next level .. . end 


FMG: Converge FAS on level 1 [eps = 0.001000, max-iter=1000]
.......... -> Normalized residual = 0.0974185 
.......... -> Normalized residual = 0.0425719 
.......... -> Normalized residual = 0.0233952 
.......... -> Normalized residual = 0.0189059 
.......... -> Normalized residual = 0.0143288 
.......... -> Normalized residual = 0.0108498 
.......... -> Normalized residual = 0.00948714 
.......... -> Normalized residual = 0.00836835 
.......... -> Normalized residual = 0.0120191 
.......... -> Normalized residual = 0.0177644 
.......... -> Normalized residual = 0.0192913 
.......... -> Normalized residual = 0.015479 
.......... -> Normalized residual = 0.0126623 
.......... -> Normalized residual = 0.0109252 
.......... -> Normalized residual = 0.00881817 
.......... -> Normalized residual = 0.00640178 
.......... -> Normalized residual = 0.0044651 
.......... -> Normalized residual = 0.00321772 
.......... -> Normalized residual = 0.00336257 
.......... -> Normalized residual = 0.00397907 
.......... -> Normalized residual = 0.00423802 
.......... -> Normalized residual = 0.00404697 
.......... -> Normalized residual = 0.00348351 
.......... -> Normalized residual = 0.00282914 
.......... -> Normalized residual = 0.00248795 
.......... -> Normalized residual = 0.00253518 
.......... -> Normalized residual = 0.00265312 
.......... -> Normalized residual = 0.00264362 
.......... -> Normalized residual = 0.00246456 
.......... -> Normalized residual = 0.00221811 
.......... -> Normalized residual = 0.00201433 
.......... -> Normalized residual = 0.00191921 
.......... -> Normalized residual = 0.00190182 
.......... -> Normalized residual = 0.00189453 
.......... -> Normalized residual = 0.00186221 
.......... -> Normalized residual = 0.00181406 
.......... -> Normalized residual = 0.00183551 
.......... -> Normalized residual = 0.00191346 
.......... -> Normalized residual = 0.0020152 
.......... -> Normalized residual = 0.00210284 
.......... -> Normalized residual = 0.00210296 
.......... -> Normalized residual = 0.00203989 
.......... -> Normalized residual = 0.00193229 
.......... -> Normalized residual = 0.00178415 
.......... -> Normalized residual = 0.00168046 
.......... -> Normalized residual = 0.00160062 
.......... -> Normalized residual = 0.0015567 
.......... -> Normalized residual = 0.00152575 
.......... -> Normalized residual = 0.00151032 
.......... -> Normalized residual = 0.00151266 
.......... -> Normalized residual = 0.00151554 
.......... -> Normalized residual = 0.00153244 
.......... -> Normalized residual = 0.0015378 
.......... -> Normalized residual = 0.00150624 
.......... -> Normalized residual = 0.00148058 
.......... -> Normalized residual = 0.00143978 
.......... -> Normalized residual = 0.00139066 
.......... -> Normalized residual = 0.00135213 
.......... -> Normalized residual = 0.00133458 
.......... -> Normalized residual = 0.0012981 
.......... -> Normalized residual = 0.00129783 
.......... -> Normalized residual = 0.0012813 
.......... -> Normalized residual = 0.00126069 
.......... -> Normalized residual = 0.00124726 
.......... -> Normalized residual = 0.00124155 
.......... -> Normalized residual = 0.00123482 
.......... -> Normalized residual = 0.00121132 
.......... -> Normalized residual = 0.0012009 
.......... -> Normalized residual = 0.00118466 
.......... -> Normalized residual = 0.00116329 
.......... -> Normalized residual = 0.00114195 
.......... -> Normalized residual = 0.00112996 
.......... -> Normalized residual = 0.00110973 
.......... -> Normalized residual = 0.00109292 
.......... -> Normalized residual = 0.001088 
.......... -> Normalized residual = 0.00106678 
.......... -> Normalized residual = 0.00106494 
.......... -> Normalized residual = 0.00105161 
.......... -> Normalized residual = 0.00103197 
.......... -> Normalized residual = 0.00102532 
.......... -> Normalized residual = 0.00101151 
.......
 FMG: FAS converged.

FMG: Finished work on level = 1 

FMG: Interpolate solution on next level .. . end 
0.->1.->2.->3.->4.->5.<<<<<
  iter  continuity  x-velocity  y-velocity  z-velocity      energy           k       omega    cm-1-res        Cm-1    cy-1-res        Cl-2    cl-1-res        Cl-1    cd-1-res        Cd-1     time/iter
     1  1.0000e+00  1.0000e+00  1.0000e+00  1.0000e+00  1.0000e+00  4.8114e-03  7.4299e-03  0.0000e+00 -1.5631e-02  0.0000e+00 -1.8912e-01  0.0000e+00  7.1916e-03  0.0000e+00 -1.3732e+00 35:57:40 9999
     2  9.0072e-01  9.0453e-01  8.9615e-01  8.9542e-01  8.9159e-01  4.7628e-03  8.5147e-03  8.5413e-04 -1.5617e-02  6.0131e-03 -1.9027e-01  2.0088e-01  8.9995e-03  1.9299e-03 -1.3759e+00 35:06:12 9998
     3  8.1655e-01  8.2555e-01  8.0978e-01  8.0889e-01  8.0044e-01  4.8122e-03  8.8107e-03  4.4985e-05 -1.5618e-02  7.8299e-03 -1.9177e-01  1.5621e-01  1.0666e-02  1.9154e-03 -1.3785e+00 34:24:36 9997
     4  7.4484e-01  7.5885e-01  7.3747e-01  7.3676e-01  7.2345e-01  4.8470e-03  8.9140e-03  5.2930e-04 -1.5626e-02  9.2419e-03 -1.9356e-01  1.2405e-01  1.2176e-02  1.8932e-03 -1.3811e+00 33:51:15 9996
     5  6.8357e-01  7.0185e-01  6.7656e-01  6.7610e-01  6.5825e-01  4.8571e-03  8.9597e-03  6.8583e-04 -1.5637e-02  1.0323e-02 -1.9558e-01  9.9581e-02  1.3523e-02  1.8652e-03 -1.3837e+00 33:24:44 9995
     6  6.3086e-01  6.5258e-01  6.2471e-01  6.2463e-01  6.0272e-01  4.8463e-03  8.9796e-03  5.8414e-04 -1.5646e-02  1.1127e-02 -1.9778e-01  8.0224e-02  1.4702e-02  1.8329e-03 -1.3863e+00 33:03:20 9994
     7  5.8533e-01  6.0992e-01  5.8018e-01  5.8051e-01  5.5526e-01  4.8193e-03  8.9839e-03  2.9826e-04 -1.5651e-02  1.1699e-02 -2.0012e-01  6.4482e-02  1.5715e-02  1.7971e-03 -1.3888e+00 32:46:10 9993
     8  5.4585e-01  5.7273e-01  5.4160e-01  5.4237e-01  5.1457e-01  4.7799e-03  8.9771e-03  1.1714e-04 -1.5649e-02  1.2073e-02 -2.0256e-01  5.1408e-02  1.6567e-02  1.7586e-03 -1.3912e+00 32:32:15 9992
     9  5.1149e-01  5.4013e-01  5.0788e-01  5.0907e-01  4.7954e-01  4.7310e-03  8.9608e-03  6.1837e-04 -1.5639e-02  1.2278e-02 -2.0508e-01  4.0358e-02  1.7264e-02  1.7183e-03 -1.3936e+00 32:21:13 9991
    10  4.8145e-01  5.1144e-01  4.7817e-01  4.7977e-01  4.4928e-01  4.6748e-03  8.9356e-03  1.1724e-03 -1.5621e-02  1.2342e-02 -2.0764e-01  3.0878e-02  1.7814e-02  1.6767e-03 -1.3959e+00 32:12:23 9990
    11  4.5508e-01  4.8606e-01  4.5180e-01  4.5377e-01  4.2302e-01  4.6130e-03  8.9030e-03  1.7479e-03 -1.5594e-02  1.2290e-02 -2.1023e-01  2.2666e-02  1.8227e-02  1.6342e-03 -1.3982e+00 32:05:08 9989
  iter  continuity  x-velocity  y-velocity  z-velocity      energy           k       omega    cm-1-res        Cm-1    cy-1-res        Cl-2    cl-1-res        Cl-1    cd-1-res        Cd-1     time/iter
    12  4.3183e-01  4.6353e-01  4.2823e-01  4.3054e-01  4.0014e-01  4.5468e-03  8.8638e-03  2.3215e-03 -1.5558e-02  1.2135e-02 -2.1281e-01  1.5481e-02  1.8514e-02  1.5913e-03 -1.4005e+00 31:59:35 9988
    13  4.1125e-01  4.4344e-01  4.0702e-01  4.0964e-01  3.8012e-01  4.4774e-03  8.8185e-03  2.8758e-03 -1.5513e-02  1.1896e-02 -2.1537e-01  9.1458e-03  1.8685e-02  1.5480e-03 -1.4026e+00 31:55:05 9987
    14  3.9296e-01  4.2548e-01  3.8782e-01  3.9074e-01  3.6254e-01  4.4054e-03  8.7675e-03  3.3972e-03 -1.5461e-02  1.1593e-02 -2.1790e-01  3.5480e-03  1.8751e-02  1.5048e-03 -1.4047e+00 31:51:22 9986
    15  3.7663e-01  4.0936e-01  3.7037e-01  3.7356e-01  3.4704e-01  4.3317e-03  8.7111e-03  3.8784e-03 -1.5401e-02  1.1240e-02 -2.2037e-01  1.4178e-03  1.8725e-02  1.4617e-03 -1.4068e+00 31:48:20 9985
    16  3.6201e-01  3.9486e-01  3.5443e-01  3.5788e-01  3.3330e-01  4.2566e-03  8.6496e-03  4.3120e-03 -1.5335e-02  1.0849e-02 -2.2279e-01  5.8338e-03  1.8616e-02  1.4190e-03 -1.4088e+00 31:45:59 9984
    17  3.4886e-01  3.8176e-01  3.3982e-01  3.4351e-01  3.2107e-01  4.1806e-03  8.5833e-03  4.6940e-03 -1.5263e-02  1.0429e-02 -2.2514e-01  9.7712e-03  1.8436e-02  1.3766e-03 -1.4107e+00 31:44:16 9983
    18  3.3699e-01  3.6991e-01  3.2638e-01  3.3029e-01  3.1014e-01  4.1042e-03  8.5127e-03  5.0230e-03 -1.5187e-02  9.9862e-03 -2.2741e-01  1.3287e-02  1.8194e-02  1.3348e-03 -1.4126e+00 31:43:19 9982
    19  3.2621e-01  3.5916e-01  3.1398e-01  3.1810e-01  3.0031e-01  4.0276e-03  8.4381e-03  5.2997e-03 -1.5107e-02  9.5283e-03 -2.2960e-01  1.6434e-02  1.7900e-02  1.2935e-03 -1.4145e+00 31:41:44 9981
    20  3.1640e-01  3.4937e-01  3.0252e-01  3.0683e-01  2.9143e-01  3.9510e-03  8.3600e-03  5.5245e-03 -1.5024e-02  9.0609e-03 -2.3170e-01  1.9249e-02  1.7562e-02  1.2529e-03 -1.4162e+00 31:40:31 9980
    21  3.0744e-01  3.4045e-01  2.9189e-01  2.9638e-01  2.8338e-01  3.8748e-03  8.2787e-03  5.6997e-03 -1.4939e-02  8.5893e-03 -2.3371e-01  2.1768e-02  1.7188e-02  1.2129e-03 -1.4179e+00 31:43:26 9979
    22  2.9923e-01  3.3230e-01  2.8203e-01  2.8667e-01  2.7604e-01  3.7990e-03  8.1946e-03  5.8286e-03 -1.4852e-02  8.1179e-03 -2.3562e-01  2.4022e-02  1.6785e-02  1.1735e-03 -1.4196e+00 31:41:44 9978
  iter  continuity  x-velocity  y-velocity  z-velocity      energy           k       omega    cm-1-res        Cm-1    cy-1-res        Cl-2    cl-1-res        Cl-1    cd-1-res        Cd-1     time/iter
    23  2.9167e-01  3.2484e-01  2.7286e-01  2.7765e-01  2.6934e-01  3.7238e-03  8.1082e-03  5.9144e-03 -1.4765e-02  7.6508e-03 -2.3743e-01  2.6035e-02  1.6359e-02  1.1349e-03 -1.4212e+00 31:40:37 9977
    24  2.8471e-01  3.1800e-01  2.6432e-01  2.6924e-01  2.6319e-01  3.6494e-03  8.0196e-03  5.9606e-03 -1.4677e-02  7.1909e-03 -2.3915e-01  2.7829e-02  1.5916e-02  1.0970e-03 -1.4228e+00 31:39:40 9976
    25  2.7827e-01  3.1173e-01  2.5637e-01  2.6141e-01  2.5754e-01  3.5759e-03  7.9289e-03  5.9707e-03 -1.4590e-02  6.7409e-03 -2.4078e-01  2.9422e-02  1.5461e-02  1.0599e-03 -1.4243e+00 31:38:43 9975
    26  2.7231e-01  3.0595e-01  2.4896e-01  2.5409e-01  2.5233e-01  3.5033e-03  7.8364e-03  5.9487e-03 -1.4504e-02  6.3037e-03 -2.4230e-01  3.0830e-02  1.4998e-02  1.0234e-03 -1.4258e+00 31:37:59 9974
    27  2.6679e-01  3.0063e-01  2.4204e-01  2.4726e-01  2.4751e-01  3.4318e-03  7.7422e-03  5.8980e-03 -1.4419e-02  5.8809e-03 -2.4374e-01  3.2067e-02  1.4532e-02  9.8771e-04 -1.4272e+00 31:37:23 9973
    28  2.6166e-01  2.9571e-01  2.3559e-01  2.4087e-01  2.4306e-01  3.3614e-03  7.6467e-03  5.8218e-03 -1.4335e-02  5.4733e-03 -2.4508e-01  3.3146e-02  1.4066e-02  9.5272e-04 -1.4285e+00 31:36:36 9972
    29  2.5689e-01  2.9116e-01  2.2956e-01  2.3489e-01  2.3894e-01  3.2922e-03  7.5498e-03  5.7233e-03 -1.4254e-02  5.0822e-03 -2.4633e-01  3.4078e-02  1.3603e-02  9.1845e-04 -1.4298e+00 31:35:50 9971
    30  2.5245e-01  2.8695e-01  2.2393e-01  2.2930e-01  2.3512e-01  3.2241e-03  7.4519e-03  5.6056e-03 -1.4174e-02  4.7079e-03 -2.4750e-01  3.4871e-02  1.3144e-02  8.8490e-04 -1.4311e+00 31:35:32 9970
    31  2.4831e-01  2.8302e-01  2.1867e-01  2.2406e-01  2.3156e-01  3.1574e-03  7.3531e-03  5.4718e-03 -1.4097e-02  4.3506e-03 -2.4858e-01  3.5539e-02  1.2693e-02  8.5205e-04 -1.4323e+00 31:35:00 9969
    32  2.4445e-01  2.7938e-01  2.1375e-01  2.1916e-01  2.2826e-01  3.0919e-03  7.2535e-03  5.3251e-03 -1.4022e-02  4.0108e-03 -2.4958e-01  3.6087e-02  1.2251e-02  8.1990e-04 -1.4335e+00 31:34:32 9968
    33  2.4083e-01  2.7597e-01  2.0916e-01  2.1457e-01  2.2517e-01  3.0276e-03  7.1533e-03  5.1677e-03 -1.3950e-02  3.6886e-03 -2.5050e-01  3.6525e-02  1.1819e-02  7.8845e-04 -1.4346e+00 31:34:19 9967
  iter  continuity  x-velocity  y-velocity  z-velocity      energy           k       omega    cm-1-res        Cm-1    cy-1-res        Cl-2    cl-1-res        Cl-1    cd-1-res        Cd-1     time/iter
    34  2.3745e-01  2.7279e-01  2.0486e-01  2.1026e-01  2.2230e-01  2.9648e-03  7.0525e-03  5.0020e-03 -1.3881e-02  3.3836e-03 -2.5135e-01  3.6856e-02  1.1399e-02  7.5768e-04 -1.4357e+00 31:33:44 9966
    35  2.3429e-01  2.6981e-01  2.0083e-01  2.0623e-01  2.1961e-01  2.9032e-03  6.9514e-03  4.8302e-03 -1.3814e-02  3.0957e-03 -2.5213e-01  3.7087e-02  1.0992e-02  7.2758e-04 -1.4368e+00 31:33:30 9965
    36  2.3132e-01  2.6702e-01  1.9707e-01  2.0245e-01  2.1710e-01  2.8429e-03  6.8500e-03  4.6540e-03 -1.3750e-02  2.8245e-03 -2.5285e-01  3.7225e-02  1.0597e-02  6.9815e-04 -1.4378e+00 31:33:18 9964
    37  2.2853e-01  2.6441e-01  1.9355e-01  1.9891e-01  2.1475e-01  2.7840e-03  6.7484e-03  4.4749e-03 -1.3689e-02  2.5695e-03 -2.5350e-01  3.7273e-02  1.0216e-02  6.6937e-04 -1.4387e+00 31:33:03 9963
    38  2.2592e-01  2.6196e-01  1.9026e-01  1.9560e-01  2.1254e-01  2.7264e-03  6.6467e-03  4.2942e-03 -1.3630e-02  2.3300e-03 -2.5409e-01  3.7235e-02  9.8496e-03  6.4122e-04 -1.4397e+00 31:32:31 9962
    39  2.2346e-01  2.5965e-01  1.8719e-01  1.9249e-01  2.1047e-01  2.6702e-03  6.5449e-03  4.1133e-03 -1.3575e-02  2.1056e-03 -2.5463e-01  3.7117e-02  9.4971e-03  6.1371e-04 -1.4405e+00 31:32:03 9961
    40  2.2116e-01  2.5748e-01  1.8431e-01  1.8958e-01  2.0854e-01  2.6152e-03  6.4432e-03  3.9330e-03 -1.3521e-02  1.8955e-03 -2.5511e-01  3.6920e-02  9.1590e-03  5.8682e-04 -1.4414e+00 31:31:56 9960
    41  2.1900e-01  2.5543e-01  1.8162e-01  1.8686e-01  2.0673e-01  2.5616e-03  6.3416e-03  3.7542e-03 -1.3471e-02  1.6992e-03 -2.5555e-01  3.6649e-02  8.8351e-03  5.6053e-04 -1.4422e+00 31:31:37 9959
    42  2.1698e-01  2.5351e-01  1.7911e-01  1.8431e-01  2.0503e-01  2.5092e-03  6.2402e-03  3.5776e-03 -1.3423e-02  1.5158e-03 -2.5593e-01  3.6308e-02  8.5256e-03  5.3484e-04 -1.4430e+00 31:31:27 9958
    43  2.1509e-01  2.5169e-01  1.7676e-01  1.8192e-01  2.0344e-01  2.4582e-03  6.1390e-03  3.4038e-03 -1.3377e-02  1.3449e-03 -2.5628e-01  3.5899e-02  8.2302e-03  5.0973e-04 -1.4437e+00 31:31:23 9957
    44  2.1332e-01  2.4998e-01  1.7457e-01  1.7969e-01  2.0196e-01  2.4084e-03  6.0381e-03  3.2334e-03 -1.3334e-02  1.1860e-03 -2.5658e-01  3.5425e-02  7.9486e-03  4.8519e-04 -1.4444e+00 31:31:07 9956
  iter  continuity  x-velocity  y-velocity  z-velocity      energy           k       omega    cm-1-res        Cm-1    cy-1-res        Cl-2    cl-1-res        Cl-1    cd-1-res        Cd-1     time/iter
    45  2.1167e-01  2.4836e-01  1.7253e-01  1.7760e-01  2.0058e-01  2.3598e-03  5.9375e-03  3.0666e-03 -1.3293e-02  1.0382e-03 -2.5685e-01  3.4889e-02  7.6806e-03  4.6121e-04 -1.4451e+00 31:30:59 9955
    46  2.1012e-01  2.4683e-01  1.7063e-01  1.7565e-01  1.9929e-01  2.3124e-03  5.8373e-03  2.9045e-03 -1.3255e-02  9.0084e-04 -2.5708e-01  3.4299e-02  7.4259e-03  4.3779e-04 -1.4457e+00 31:30:39 9954
    47  2.0869e-01  2.4538e-01  1.6886e-01  1.7384e-01  1.9809e-01  2.2663e-03  5.7374e-03  2.7473e-03 -1.3219e-02  7.7286e-04 -2.5728e-01  3.3657e-02  7.1841e-03  4.1490e-04 -1.4463e+00 31:30:24 9953
    48  2.0736e-01  2.4401e-01  1.6722e-01  1.7214e-01  1.9698e-01  2.2214e-03  5.6381e-03  2.5952e-03 -1.3184e-02  6.5446e-04 -2.5745e-01  3.2970e-02  6.9548e-03  3.9253e-04 -1.4469e+00 31:43:46 9952
    49  2.0613e-01  2.4272e-01  1.6569e-01  1.7057e-01  1.9596e-01  2.1776e-03  5.5392e-03  2.4480e-03 -1.3152e-02  5.4476e-04 -2.5759e-01  3.2235e-02  6.7376e-03  3.7068e-04 -1.4474e+00 31:45:38 9951
    50  2.0499e-01  2.4150e-01  1.6429e-01  1.6911e-01  1.9502e-01  2.1349e-03  5.4408e-03  2.3054e-03 -1.3122e-02  4.4342e-04 -2.5770e-01  3.1456e-02  6.5321e-03  3.4933e-04 -1.4479e+00 31:41:48 9950
    51  2.0396e-01  2.4034e-01  1.6299e-01  1.6776e-01  1.9416e-01  2.0934e-03  5.3430e-03  2.1683e-03 -1.3094e-02  3.4981e-04 -2.5779e-01  3.0640e-02  6.3379e-03  3.2848e-04 -1.4484e+00 31:38:44 9949
    52  2.0302e-01  2.3926e-01  1.6179e-01  1.6652e-01  1.9339e-01  2.0530e-03  5.2458e-03  2.0363e-03 -1.3067e-02  2.6275e-04 -2.5786e-01  2.9786e-02  6.1546e-03  3.0811e-04 -1.4488e+00 31:36:10 9948
    53  2.0217e-01  2.3823e-01  1.6070e-01  1.6537e-01  1.9270e-01  2.0136e-03  5.1492e-03  1.9104e-03 -1.3042e-02  1.8212e-04 -2.5791e-01  2.8904e-02  5.9817e-03  2.8821e-04 -1.4493e+00 31:34:15 9947
    54  2.0141e-01  2.3726e-01  1.5971e-01  1.6432e-01  1.9209e-01  1.9753e-03  5.0533e-03  1.7909e-03 -1.3019e-02  1.0812e-04 -2.5794e-01  2.8005e-02  5.8188e-03  2.6878e-04 -1.4496e+00 31:33:33 9946
    55  2.0076e-01  2.3635e-01  1.5882e-01  1.6337e-01  1.9156e-01  1.9380e-03  4.9580e-03  1.6740e-03 -1.2997e-02  3.8885e-05 -2.5795e-01  2.7067e-02  5.6654e-03  2.4979e-04 -1.4500e+00 31:31:34 9945
  iter  continuity  x-velocity  y-velocity  z-velocity      energy           k       omega    cm-1-res        Cm-1    cy-1-res        Cl-2    cl-1-res        Cl-1    cd-1-res        Cd-1     time/iter
    56  2.0019e-01  2.3550e-01  1.5801e-01  1.6252e-01  1.9113e-01  1.9018e-03  4.8635e-03  1.5630e-03 -1.2977e-02  2.4802e-05 -2.5794e-01  2.6119e-02  5.5212e-03  2.3125e-04 -1.4503e+00 31:40:06 9944
    57  1.9972e-01  2.3471e-01  1.5730e-01  1.6175e-01  1.9077e-01  1.8665e-03  4.7697e-03  1.4577e-03 -1.2958e-02  8.3359e-05 -2.5792e-01  2.5167e-02  5.3857e-03  2.1313e-04 -1.4506e+00 31:40:56 9943
    58  1.9934e-01  2.3397e-01  1.5669e-01  1.6106e-01  1.9049e-01  1.8322e-03  4.6766e-03  1.3566e-03 -1.2940e-02  1.3761e-04 -2.5788e-01  2.4191e-02  5.2585e-03  1.9545e-04 -1.4509e+00 31:37:40 9942
    59  1.9905e-01  2.3328e-01  1.5615e-01  1.6047e-01  1.9029e-01  1.7988e-03  4.5844e-03  1.2612e-03 -1.2924e-02  1.8722e-04 -2.5783e-01  2.3214e-02  5.1392e-03  1.7817e-04 -1.4512e+00 31:35:19 9941
    60  1.9885e-01  2.3264e-01  1.5571e-01  1.5996e-01  1.9018e-01  1.7664e-03  4.4929e-03  1.1699e-03 -1.2909e-02  2.3298e-04 -2.5777e-01  2.2221e-02  5.0275e-03  1.6129e-04 -1.4514e+00 31:39:33 9940
    61  1.9873e-01  2.3206e-01  1.5535e-01  1.5953e-01  1.9014e-01  1.7348e-03  4.4022e-03  1.0819e-03 -1.2895e-02  2.7535e-04 -2.5770e-01  2.1218e-02  4.9230e-03  1.4481e-04 -1.4516e+00 31:35:43 9939
    62  1.9871e-01  2.3152e-01  1.5507e-01  1.5919e-01  1.9019e-01  1.7041e-03  4.3124e-03  9.9750e-04 -1.2882e-02  3.1437e-04 -2.5762e-01  2.0213e-02  4.8255e-03  1.2872e-04 -1.4518e+00 31:32:45 9938
    63  1.9878e-01  2.3104e-01  1.5488e-01  1.5892e-01  1.9033e-01  1.6743e-03  4.2235e-03  9.1901e-04 -1.2870e-02  3.4968e-04 -2.5753e-01  1.9227e-02  4.7344e-03  1.1299e-04 -1.4520e+00 31:30:15 9937
    64  1.9894e-01  2.3061e-01  1.5478e-01  1.5874e-01  1.9054e-01  1.6453e-03  4.1354e-03  8.4492e-04 -1.2859e-02  3.8263e-04 -2.5743e-01  1.8246e-02  4.6496e-03  9.7639e-05 -1.4521e+00 31:28:02 9936
    65  1.9920e-01  2.3023e-01  1.5476e-01  1.5865e-01  1.9084e-01  1.6171e-03  4.0482e-03  7.7534e-04 -1.2849e-02  4.1291e-04 -2.5733e-01  1.7283e-02  4.5706e-03  8.2643e-05 -1.4522e+00 31:26:23 9935
    66  1.9954e-01  2.2990e-01  1.5483e-01  1.5863e-01  1.9123e-01  1.5897e-03  3.9619e-03  7.1099e-04 -1.2840e-02  4.4027e-04 -2.5721e-01  1.6343e-02  4.4971e-03  6.7996e-05 -1.4523e+00 31:25:11 9934
  iter  continuity  x-velocity  y-velocity  z-velocity      energy           k       omega    cm-1-res        Cm-1    cy-1-res        Cl-2    cl-1-res        Cl-1    cd-1-res        Cd-1     time/iter
    67  1.9999e-01  2.2963e-01  1.5497e-01  1.5869e-01  1.9172e-01  1.5631e-03  3.8765e-03  6.4974e-04 -1.2832e-02  4.6510e-04 -2.5709e-01  1.5410e-02  4.4288e-03  5.3692e-05 -1.4524e+00 31:23:58 9933
    68  2.0053e-01  2.2940e-01  1.5521e-01  1.5883e-01  1.9229e-01  1.5373e-03  3.7921e-03  5.9134e-04 -1.2824e-02  4.8806e-04 -2.5697e-01  1.4492e-02  4.3656e-03  3.9720e-05 -1.4525e+00 31:22:57 9932
    69  2.0117e-01  2.2923e-01  1.5552e-01  1.5906e-01  1.9295e-01  1.5121e-03  3.7086e-03  5.3424e-04 -1.2817e-02  5.0980e-04 -2.5684e-01  1.3574e-02  4.3071e-03  2.6073e-05 -1.4525e+00 31:22:12 9931
    70  2.0189e-01  2.2911e-01  1.5592e-01  1.5936e-01  1.9369e-01  1.4877e-03  3.6261e-03  4.8138e-04 -1.2811e-02  5.2915e-04 -2.5670e-01  1.2684e-02  4.2532e-03  1.2745e-05 -1.4525e+00 31:21:34 9930
    71  2.0270e-01  2.2904e-01  1.5640e-01  1.5974e-01  1.9452e-01  1.4640e-03  3.5446e-03  4.3327e-04 -1.2806e-02  5.4604e-04 -2.5656e-01  1.1836e-02  4.2034e-03  2.7270e-07 -1.4525e+00 31:28:33 9929
    72  2.0362e-01  2.2903e-01  1.5697e-01  1.6020e-01  1.9546e-01  1.4409e-03  3.4640e-03  3.8959e-04 -1.2801e-02  5.6126e-04 -2.5642e-01  1.1032e-02  4.1576e-03  1.2987e-05 -1.4525e+00 31:26:38 9928
    73  2.0464e-01  2.2907e-01  1.5760e-01  1.6074e-01  1.9648e-01  1.4186e-03  3.3845e-03  3.4778e-04 -1.2796e-02  5.7654e-04 -2.5627e-01  1.0230e-02  4.1155e-03  2.5405e-05 -1.4525e+00 31:25:04 9927
    74  2.0575e-01  2.2917e-01  1.5831e-01  1.6135e-01  1.9759e-01  1.3968e-03  3.3060e-03  3.0990e-04 -1.2792e-02  5.8879e-04 -2.5612e-01  9.4870e-03  4.0768e-03  3.7536e-05 -1.4524e+00 31:23:51 9926
    75  2.0696e-01  2.2932e-01  1.5910e-01  1.6204e-01  1.9880e-01  1.3757e-03  3.2285e-03  2.7267e-04 -1.2789e-02  6.0022e-04 -2.5597e-01  8.7520e-03  4.0414e-03  4.9385e-05 -1.4524e+00 31:22:46 9925
    76  2.0827e-01  2.2953e-01  1.5997e-01  1.6281e-01  2.0010e-01  1.3553e-03  3.1521e-03  2.3851e-04 -1.2786e-02  6.1171e-04 -2.5581e-01  8.0186e-03  4.0093e-03  6.0961e-05 -1.4523e+00 31:21:41 9924
    77  2.0967e-01  2.2979e-01  1.6091e-01  1.6365e-01  2.0150e-01  1.3354e-03  3.0767e-03  2.0850e-04 -1.2783e-02  6.2134e-04 -2.5565e-01  7.3553e-03  3.9800e-03  7.2269e-05 -1.4522e+00 31:21:00 9923
  iter  continuity  x-velocity  y-velocity  z-velocity      energy           k       omega    cm-1-res        Cm-1    cy-1-res        Cl-2    cl-1-res        Cl-1    cd-1-res        Cd-1     time/iter
    78  2.1117e-01  2.3011e-01  1.6195e-01  1.6456e-01  2.0299e-01  1.3161e-03  3.0024e-03  1.7984e-04 -1.2781e-02  6.3052e-04 -2.5549e-01  6.7159e-03  3.9534e-03  8.3313e-05 -1.4520e+00 31:20:30 9922
    79  2.1277e-01  2.3048e-01  1.6305e-01  1.6554e-01  2.0458e-01  1.2974e-03  2.9292e-03  1.5171e-04 -1.2779e-02  6.3946e-04 -2.5533e-01  6.0708e-03  3.9296e-03  9.4103e-05 -1.4519e+00 31:20:03 9921
    80  2.1449e-01  2.3091e-01  1.6422e-01  1.6660e-01  2.0628e-01  1.2795e-03  2.8571e-03  1.2891e-04 -1.2777e-02  6.4564e-04 -2.5516e-01  5.4678e-03  3.9082e-03  1.0465e-04 -1.4518e+00 31:19:48 9920
    81  2.1629e-01  2.3140e-01  1.6549e-01  1.6774e-01  2.0807e-01  1.2625e-03  2.7861e-03  1.1135e-04 -1.2776e-02  6.5043e-04 -2.5500e-01  4.9417e-03  3.8890e-03  1.1495e-04 -1.4516e+00 31:19:27 9919
    82  2.1820e-01  2.3195e-01  1.6681e-01  1.6895e-01  2.0996e-01  1.2465e-03  2.7163e-03  9.7732e-05 -1.2775e-02  6.5435e-04 -2.5483e-01  4.4706e-03  3.8717e-03  1.2501e-04 -1.4514e+00 31:19:04 9918
    83  2.2020e-01  2.3255e-01  1.6820e-01  1.7023e-01  2.1194e-01  1.2314e-03  2.6475e-03  7.8910e-05 -1.2774e-02  6.5991e-04 -2.5466e-01  3.9592e-03  3.8564e-03  1.3485e-04 -1.4512e+00 31:18:40 9917
    84  2.2231e-01  2.3322e-01  1.6967e-01  1.7158e-01  2.1403e-01  1.2172e-03  2.5799e-03  5.7993e-05 -1.2773e-02  6.6519e-04 -2.5449e-01  3.4307e-03  3.8432e-03  1.4446e-04 -1.4510e+00 31:18:32 9916
    85  2.2451e-01  2.3393e-01  1.7121e-01  1.7301e-01  2.1621e-01  1.2037e-03  2.5133e-03  3.6385e-05 -1.2772e-02  6.7068e-04 -2.5432e-01  2.9248e-03  3.8320e-03  1.5385e-04 -1.4508e+00 31:18:27 9915
    86  2.2682e-01  2.3470e-01  1.7283e-01  1.7451e-01  2.1850e-01  1.1910e-03  2.4480e-03  1.5698e-05 -1.2772e-02  6.7623e-04 -2.5415e-01  2.4291e-03  3.8227e-03  1.6303e-04 -1.4505e+00 31:18:01 9914
    87  2.2922e-01  2.3552e-01  1.7452e-01  1.7607e-01  2.2087e-01  1.1792e-03  2.3838e-03  3.5469e-06 -1.2772e-02  6.7833e-04 -2.5398e-01  2.0228e-03  3.8150e-03  1.7200e-04 -1.4503e+00 31:17:15 9913
    88  2.3172e-01  2.3640e-01  1.7628e-01  1.7769e-01  2.2335e-01  1.1686e-03  2.3207e-03  8.2872e-06 -1.2772e-02  6.7931e-04 -2.5380e-01  1.6309e-03  3.8088e-03  1.8077e-04 -1.4500e+00 31:17:01 9912
  iter  continuity  x-velocity  y-velocity  z-velocity      energy           k       omega    cm-1-res        Cm-1    cy-1-res        Cl-2    cl-1-res        Cl-1    cd-1-res        Cd-1     time/iter
    89  2.3431e-01  2.3733e-01  1.7809e-01  1.7938e-01  2.2592e-01  1.1589e-03  2.2589e-03  2.3981e-05 -1.2773e-02  6.8048e-04 -2.5363e-01  1.1946e-03  3.8043e-03  1.8933e-04 -1.4498e+00 31:16:53 9911
    90  2.3701e-01  2.3832e-01  1.7997e-01  1.8112e-01  2.2860e-01  1.1504e-03  2.1982e-03  3.6759e-05 -1.2773e-02  6.8332e-04 -2.5346e-01  7.5103e-04  3.8014e-03  1.9771e-04 -1.4495e+00 31:17:00 9910
    91  2.3979e-01  2.3936e-01  1.8190e-01  1.8293e-01  2.3136e-01  1.1428e-03  2.1387e-03  4.3927e-05 -1.2774e-02  6.8398e-04 -2.5329e-01  3.8724e-04  3.7999e-03  2.0590e-04 -1.4492e+00 31:16:53 9909
    92  2.4266e-01  2.4046e-01  1.8389e-01  1.8479e-01  2.3420e-01  1.1363e-03  2.0805e-03  4.8537e-05 -1.2774e-02  6.8434e-04 -2.5311e-01  1.3958e-04  3.7994e-03  2.1391e-04 -1.4489e+00 31:25:02 9908
    93  2.4562e-01  2.4161e-01  1.8593e-01  1.8671e-01  2.3713e-01  1.1307e-03  2.0234e-03  5.3348e-05 -1.2775e-02  6.8259e-04 -2.5294e-01  9.6147e-05  3.7998e-03  2.2173e-04 -1.4485e+00 31:22:56 9907
    94  2.4864e-01  2.4281e-01  1.8805e-01  1.8869e-01  2.4013e-01  1.1262e-03  1.9675e-03  5.9302e-05 -1.2776e-02  6.8133e-04 -2.5277e-01  3.2024e-04  3.8010e-03  2.2939e-04 -1.4482e+00 31:21:26 9906
    95  2.5178e-01  2.4410e-01  1.9026e-01  1.9099e-01  2.4326e-01  1.1229e-03  1.9127e-03  6.5162e-05 -1.2776e-02  6.8230e-04 -2.5259e-01  5.5948e-04  3.8031e-03  2.3687e-04 -1.4479e+00 31:19:57 9905
    96  2.5493e-01  2.4540e-01  1.9245e-01  1.9303e-01  2.4639e-01  1.1205e-03  1.8592e-03  6.7708e-05 -1.2777e-02  6.8433e-04 -2.5242e-01  7.8133e-04  3.8061e-03  2.4418e-04 -1.4475e+00 31:19:00 9904
    97  2.5817e-01  2.4674e-01  1.9468e-01  1.9512e-01  2.4961e-01  1.1192e-03  1.8069e-03  6.9445e-05 -1.2778e-02  6.8487e-04 -2.5225e-01  9.8021e-04  3.8098e-03  2.5134e-04 -1.4471e+00 31:17:52 9903
    98  2.6150e-01  2.4815e-01  1.9696e-01  1.9727e-01  2.5292e-01  1.1190e-03  1.7558e-03  6.9984e-05 -1.2779e-02  6.8413e-04 -2.5208e-01  1.1383e-03  3.8142e-03  2.5834e-04 -1.4468e+00 31:17:08 9902
    99  2.6490e-01  2.4961e-01  1.9929e-01  1.9946e-01  2.5629e-01  1.1198e-03  1.7059e-03  6.9223e-05 -1.2780e-02  6.8363e-04 -2.5190e-01  1.3216e-03  3.8192e-03  2.6519e-04 -1.4464e+00 31:16:11 9901
  iter  continuity  x-velocity  y-velocity  z-velocity      energy           k       omega    cm-1-res        Cm-1    cy-1-res        Cl-2    cl-1-res        Cl-1    cd-1-res        Cd-1     time/iter
   100  2.6836e-01  2.5112e-01  2.0166e-01  2.0171e-01  2.5972e-01  1.1214e-03  1.6572e-03  7.0862e-05 -1.2781e-02  6.8306e-04 -2.5173e-01  1.5128e-03  3.8250e-03  2.7188e-04 -1.4460e+00 31:13:14 9900
   101  2.7185e-01  2.5267e-01  2.0407e-01  2.0400e-01  2.6319e-01  1.1236e-03  1.6499e-03  7.9570e-05 -1.2782e-02  6.8430e-04 -2.5156e-01  1.7502e-03  3.8317e-03  2.7841e-04 -1.4456e+00 31:11:18 9899
   102  2.7207e-01  2.5088e-01  2.0163e-01  2.0174e-01  2.6342e-01  1.1262e-03  1.6425e-03  8.6050e-05 -1.2783e-02  6.8300e-04 -2.5139e-01  1.9561e-03  3.8392e-03  2.8482e-04 -1.4452e+00 31:09:31 9898
   103  2.7239e-01  2.4929e-01  1.9941e-01  1.9969e-01  2.6375e-01  1.1290e-03  1.6350e-03  9.3029e-05 -1.2784e-02  6.8292e-04 -2.5122e-01  2.1586e-03  3.8475e-03  2.9111e-04 -1.4448e+00 31:07:57 9897
   104  2.7274e-01  2.4788e-01  1.9737e-01  1.9783e-01  2.6414e-01  1.1318e-03  1.6274e-03  1.0349e-04 -1.2786e-02  6.8196e-04 -2.5105e-01  2.4372e-03  3.8569e-03  2.9727e-04 -1.4443e+00 31:10:30 9896
   105  2.7312e-01  2.4662e-01  1.9547e-01  1.9612e-01  2.6454e-01  1.1347e-03  1.6198e-03  1.0789e-04 -1.2787e-02  6.7979e-04 -2.5088e-01  2.6273e-03  3.8671e-03  3.0329e-04 -1.4439e+00 31:08:33 9895
   106  2.7349e-01  2.4550e-01  1.9371e-01  1.9455e-01  2.6495e-01  1.1375e-03  1.6121e-03  1.1247e-04 -1.2788e-02  6.7692e-04 -2.5071e-01  2.8162e-03  3.8780e-03  3.0918e-04 -1.4434e+00 31:07:05 9894
   107  2.7391e-01  2.4453e-01  1.9210e-01  1.9329e-01  2.6543e-01  1.1402e-03  1.6043e-03  1.2000e-04 -1.2790e-02  6.7555e-04 -2.5054e-01  3.0558e-03  3.8899e-03  3.1493e-04 -1.4430e+00 31:05:46 9893
   108  2.7425e-01  2.4359e-01  1.9058e-01  1.9187e-01  2.6581e-01  1.1427e-03  1.5965e-03  1.2495e-04 -1.2791e-02  6.7364e-04 -2.5037e-01  3.2594e-03  3.9026e-03  3.2055e-04 -1.4425e+00 31:04:34 9892
   109  2.7457e-01  2.4274e-01  1.8916e-01  1.9055e-01  2.6618e-01  1.1451e-03  1.5887e-03  1.2989e-04 -1.2793e-02  6.7180e-04 -2.5020e-01  3.4598e-03  3.9162e-03  3.2602e-04 -1.4421e+00 31:03:14 9891
   110  2.7485e-01  2.4197e-01  1.8783e-01  1.8934e-01  2.6651e-01  1.1475e-03  1.5808e-03  1.3273e-04 -1.2795e-02  6.6956e-04 -2.5003e-01  3.6216e-03  3.9304e-03  3.3136e-04 -1.4416e+00 31:02:18 9890
  iter  continuity  x-velocity  y-velocity  z-velocity      energy           k       omega    cm-1-res        Cm-1    cy-1-res        Cl-2    cl-1-res        Cl-1    cd-1-res        Cd-1     time/iter
   111  2.7510e-01  2.4127e-01  1.8658e-01  1.8822e-01  2.6683e-01  1.1497e-03  1.5729e-03  1.3366e-04 -1.2797e-02  6.6664e-04 -2.4987e-01  3.7496e-03  3.9452e-03  3.3657e-04 -1.4411e+00 31:01:31 9889
   112  2.7535e-01  2.4063e-01  1.8539e-01  1.8715e-01  2.6714e-01  1.1518e-03  1.5651e-03  1.3669e-04 -1.2798e-02  6.6450e-04 -2.4970e-01  3.8934e-03  3.9606e-03  3.4164e-04 -1.4406e+00 31:00:45 9888
   113  2.7558e-01  2.4004e-01  1.8423e-01  1.8613e-01  2.6743e-01  1.1537e-03  1.5572e-03  1.4166e-04 -1.2800e-02  6.6231e-04 -2.4953e-01  4.0530e-03  3.9767e-03  3.4658e-04 -1.4401e+00 31:02:31 9887
   114  2.7579e-01  2.3949e-01  1.8311e-01  1.8514e-01  2.6771e-01  1.1556e-03  1.5493e-03  1.3888e-04 -1.2802e-02  6.6109e-04 -2.4937e-01  4.1265e-03  3.9932e-03  3.5140e-04 -1.4396e+00 31:11:47 9886
   115  2.7600e-01  2.3899e-01  1.8204e-01  1.8417e-01  2.6799e-01  1.1573e-03  1.5414e-03  1.3716e-04 -1.2804e-02  6.5991e-04 -2.4921e-01  4.2172e-03  4.0101e-03  3.5610e-04 -1.4391e+00 31:08:50 9885
   116  2.7619e-01  2.3851e-01  1.8100e-01  1.8323e-01  2.6825e-01  1.1590e-03  1.5336e-03  1.3532e-04 -1.2805e-02  6.5835e-04 -2.4904e-01  4.3009e-03  4.0274e-03  3.6068e-04 -1.4386e+00 31:06:20 9884
   117  2.7632e-01  2.3805e-01  1.8001e-01  1.8233e-01  2.6846e-01  1.1605e-03  1.5258e-03  1.3189e-04 -1.2807e-02  6.5704e-04 -2.4888e-01  4.3389e-03  4.0450e-03  3.6515e-04 -1.4380e+00 31:04:14 9883
   118  2.7644e-01  2.3761e-01  1.7906e-01  1.8147e-01  2.6865e-01  1.1620e-03  1.5180e-03  1.2744e-04 -1.2809e-02  6.5582e-04 -2.4871e-01  4.3619e-03  4.0627e-03  3.6951e-04 -1.4375e+00 31:10:32 9882
   119  2.7653e-01  2.3718e-01  1.7817e-01  1.8065e-01  2.6882e-01  1.1634e-03  1.5103e-03  1.2316e-04 -1.2810e-02  6.5442e-04 -2.4855e-01  4.3885e-03  4.0806e-03  3.7376e-04 -1.4370e+00 31:13:24 9881
   120  2.7659e-01  2.3676e-01  1.7733e-01  1.7987e-01  2.6897e-01  1.1647e-03  1.5026e-03  1.1881e-04 -1.2812e-02  6.5296e-04 -2.4839e-01  4.4139e-03  4.0987e-03  3.7790e-04 -1.4364e+00 31:09:48 9880
   121  2.7664e-01  2.3636e-01  1.7650e-01  1.7911e-01  2.6911e-01  1.1659e-03  1.4949e-03  1.1506e-04 -1.2813e-02  6.5192e-04 -2.4823e-01  4.4427e-03  4.1170e-03  3.8195e-04 -1.4359e+00 31:12:56 9879
  iter  continuity  x-velocity  y-velocity  z-velocity      energy           k       omega    cm-1-res        Cm-1    cy-1-res        Cl-2    cl-1-res        Cl-1    cd-1-res        Cd-1     time/iter
   122  2.7668e-01  2.3596e-01  1.7569e-01  1.7837e-01  2.6924e-01  1.1671e-03  1.4874e-03  1.1131e-04 -1.2815e-02  6.5099e-04 -2.4807e-01  4.4688e-03  4.1355e-03  3.8589e-04 -1.4353e+00 31:09:19 9878
   123  2.7672e-01  2.3555e-01  1.7491e-01  1.7766e-01  2.6937e-01  1.1682e-03  1.4798e-03  1.0639e-04 -1.2816e-02  6.5008e-04 -2.4791e-01  4.4782e-03  4.1541e-03  3.8974e-04 -1.4348e+00 31:08:54 9877
   124  2.7674e-01  2.3514e-01  1.7416e-01  1.7695e-01  2.6949e-01  1.1692e-03  1.4724e-03  1.0033e-04 -1.2817e-02  6.4945e-04 -2.4774e-01  4.4792e-03  4.1728e-03  3.9349e-04 -1.4342e+00 31:08:23 9876
   125  2.7677e-01  2.3475e-01  1.7361e-01  1.7634e-01  2.6962e-01  1.1701e-03  1.4650e-03  9.4589e-05 -1.2819e-02  6.4959e-04 -2.4758e-01  4.4861e-03  4.1916e-03  3.9715e-04 -1.4336e+00 31:11:43 9875
   126  2.7677e-01  2.3433e-01  1.7289e-01  1.7564e-01  2.6972e-01  1.1710e-03  1.4577e-03  9.0328e-05 -1.2820e-02  6.5073e-04 -2.4742e-01  4.4956e-03  4.2105e-03  4.0073e-04 -1.4331e+00 31:07:52 9874
   127  2.7681e-01  2.3397e-01  1.7238e-01  1.7496e-01  2.6987e-01  1.1718e-03  1.4504e-03  8.6256e-05 -1.2821e-02  6.5129e-04 -2.4726e-01  4.4911e-03  4.2295e-03  4.0422e-04 -1.4325e+00 31:04:43 9873
   128  2.7679e-01  2.3356e-01  1.7178e-01  1.7445e-01  2.6997e-01  1.1725e-03  1.4433e-03  8.1033e-05 -1.2822e-02  6.5120e-04 -2.4710e-01  4.4803e-03  4.2485e-03  4.0762e-04 -1.4319e+00 31:02:11 9872
   129  2.7675e-01  2.3315e-01  1.7102e-01  1.7378e-01  2.7004e-01  1.1732e-03  1.4362e-03  7.5491e-05 -1.2823e-02  6.5171e-04 -2.4694e-01  4.4811e-03  4.2677e-03  4.1094e-04 -1.4313e+00 31:00:07 9871
   130  2.7672e-01  2.3277e-01  1.7032e-01  1.7315e-01  2.7012e-01  1.1738e-03  1.4291e-03  7.0533e-05 -1.2824e-02  6.5260e-04 -2.4678e-01  4.4917e-03  4.2869e-03  4.1418e-04 -1.4307e+00 30:58:30 9870
   131  2.7672e-01  2.3241e-01  1.6979e-01  1.7259e-01  2.7023e-01  1.1744e-03  1.4222e-03  6.6076e-05 -1.2825e-02  6.5369e-04 -2.4662e-01  4.5072e-03  4.3063e-03  4.1733e-04 -1.4301e+00 31:03:14 9869
   132  2.7667e-01  2.3203e-01  1.6907e-01  1.7196e-01  2.7030e-01  1.1748e-03  1.4154e-03  5.9968e-05 -1.2825e-02  6.5350e-04 -2.4646e-01  4.4959e-03  4.3258e-03  4.2042e-04 -1.4295e+00 31:00:17 9868
  iter  continuity  x-velocity  y-velocity  z-velocity      energy           k       omega    cm-1-res        Cm-1    cy-1-res        Cl-2    cl-1-res        Cl-1    cd-1-res        Cd-1     time/iter
   133  2.7663e-01  2.3165e-01  1.6853e-01  1.7151e-01  2.7038e-01  1.1753e-03  1.4086e-03  5.4301e-05 -1.2826e-02  6.5370e-04 -2.4630e-01  4.4856e-03  4.3453e-03  4.2342e-04 -1.4289e+00 30:58:04 9867
   134  2.7658e-01  2.3127e-01  1.6783e-01  1.7089e-01  2.7044e-01  1.1757e-03  1.4019e-03  4.8818e-05 -1.2827e-02  6.5400e-04 -2.4613e-01  4.4719e-03  4.3648e-03  4.2636e-04 -1.4283e+00 30:56:27 9866
   135  2.7651e-01  2.3088e-01  1.6718e-01  1.7030e-01  2.7050e-01  1.1760e-03  1.3953e-03  4.3327e-05 -1.2827e-02  6.5466e-04 -2.4597e-01  4.4582e-03  4.3843e-03  4.2922e-04 -1.4277e+00 30:54:53 9865
   136  2.7646e-01  2.3052e-01  1.6656e-01  1.6971e-01  2.7056e-01  1.1762e-03  1.3887e-03  3.6749e-05 -1.2828e-02  6.5417e-04 -2.4581e-01  4.4325e-03  4.4038e-03  4.3201e-04 -1.4271e+00 30:53:42 9864
   137  2.7640e-01  2.3015e-01  1.6597e-01  1.6914e-01  2.7063e-01  1.1764e-03  1.3823e-03  3.3448e-05 -1.2828e-02  6.5436e-04 -2.4565e-01  4.4391e-03  4.4235e-03  4.3474e-04 -1.4265e+00 30:52:57 9863
   138  2.7639e-01  2.2984e-01  1.6557e-01  1.6874e-01  2.7074e-01  1.1766e-03  1.3759e-03  2.2917e-05 -1.2828e-02  6.5516e-04 -2.4549e-01  4.3866e-03  4.4430e-03  4.3740e-04 -1.4258e+00 30:52:27 9862
   139  2.7633e-01  2.2946e-01  1.6501e-01  1.6818e-01  2.7080e-01  1.1767e-03  1.3696e-03  1.4988e-05 -1.2829e-02  6.5621e-04 -2.4533e-01  4.3551e-03  4.4624e-03  4.3999e-04 -1.4252e+00 30:51:56 9861
   140  2.7627e-01  2.2908e-01  1.6447e-01  1.6764e-01  2.7086e-01  1.1768e-03  1.3635e-03  7.6522e-06 -1.2829e-02  6.5667e-04 -2.4517e-01  4.3278e-03  4.4818e-03  4.4252e-04 -1.4246e+00 30:51:33 9860
   141  2.7622e-01  2.2870e-01  1.6396e-01  1.6711e-01  2.7094e-01  1.1768e-03  1.3574e-03  9.8474e-07 -1.2829e-02  6.5634e-04 -2.4501e-01  4.2957e-03  4.5011e-03  4.4498e-04 -1.4239e+00 30:51:12 9859
   142  2.7617e-01  2.2832e-01  1.6348e-01  1.6660e-01  2.7102e-01  1.1768e-03  1.3513e-03  8.1459e-06 -1.2829e-02  6.5710e-04 -2.4485e-01  4.2700e-03  4.5204e-03  4.4739e-04 -1.4233e+00 30:50:53 9858
   143  2.7613e-01  2.2794e-01  1.6301e-01  1.6609e-01  2.7110e-01  1.1767e-03  1.3454e-03  1.4952e-05 -1.2828e-02  6.5847e-04 -2.4469e-01  4.2367e-03  4.5397e-03  4.4974e-04 -1.4227e+00 30:50:28 9857
  iter  continuity  x-velocity  y-velocity  z-velocity      energy           k       omega    cm-1-res        Cm-1    cy-1-res        Cl-2    cl-1-res        Cl-1    cd-1-res        Cd-1     time/iter
   144  2.7609e-01  2.2755e-01  1.6257e-01  1.6561e-01  2.7119e-01  1.1766e-03  1.3395e-03  1.9622e-05 -1.2828e-02  6.6017e-04 -2.4453e-01  4.2232e-03  4.5589e-03  4.5203e-04 -1.4220e+00 30:50:04 9856
   145  2.7606e-01  2.2718e-01  1.6214e-01  1.6514e-01  2.7128e-01  1.1765e-03  1.3338e-03  2.6542e-05 -1.2828e-02  6.6124e-04 -2.4436e-01  4.1889e-03  4.5781e-03  4.5426e-04 -1.4214e+00 30:49:43 9855
   146  2.7605e-01  2.2683e-01  1.6179e-01  1.6475e-01  2.7141e-01  1.1763e-03  1.3280e-03  3.0369e-05 -1.2827e-02  6.6365e-04 -2.4420e-01  4.1912e-03  4.5974e-03  4.5644e-04 -1.4207e+00 30:49:13 9854
   147  2.7601e-01  2.2646e-01  1.6137e-01  1.6429e-01  2.7150e-01  1.1760e-03  1.3224e-03  3.5240e-05 -1.2827e-02  6.6562e-04 -2.4404e-01  4.1852e-03  4.6167e-03  4.5856e-04 -1.4201e+00 30:50:52 9853
   148  2.7598e-01  2.2609e-01  1.6095e-01  1.6383e-01  2.7159e-01  1.1758e-03  1.3169e-03  4.0660e-05 -1.2826e-02  6.6752e-04 -2.4388e-01  4.1789e-03  4.6361e-03  4.6063e-04 -1.4194e+00 30:55:19 9852
   149  2.7594e-01  2.2573e-01  1.6056e-01  1.6340e-01  2.7168e-01  1.1755e-03  1.3114e-03  4.7063e-05 -1.2826e-02  6.6888e-04 -2.4371e-01  4.1492e-03  4.6554e-03  4.6264e-04 -1.4188e+00 30:53:43 9851
   150  2.7591e-01  2.2538e-01  1.6018e-01  1.6299e-01  2.7176e-01  1.1751e-03  1.3060e-03  5.3208e-05 -1.2825e-02  6.7050e-04 -2.4355e-01  4.1092e-03  4.6746e-03  4.6461e-04 -1.4181e+00 30:52:17 9850
   151  2.7587e-01  2.2503e-01  1.5981e-01  1.6259e-01  2.7185e-01  1.1748e-03  1.3007e-03  6.0712e-05 -1.2824e-02  6.7133e-04 -2.4339e-01  4.0455e-03  4.6936e-03  4.6652e-04 -1.4174e+00 30:51:26 9849
   152  2.7583e-01  2.2468e-01  1.5946e-01  1.6219e-01  2.7192e-01  1.1744e-03  1.2955e-03  6.7843e-05 -1.2824e-02  6.7229e-04 -2.4322e-01  3.9857e-03  4.7124e-03  4.6838e-04 -1.4168e+00 30:50:25 9848
   153  2.7579e-01  2.2433e-01  1.5912e-01  1.6179e-01  2.7200e-01  1.1739e-03  1.2904e-03  7.5066e-05 -1.2823e-02  6.7301e-04 -2.4306e-01  3.9261e-03  4.7309e-03  4.7019e-04 -1.4161e+00 30:49:34 9847
   154  2.7574e-01  2.2398e-01  1.5879e-01  1.6140e-01  2.7206e-01  1.1735e-03  1.2853e-03  8.1495e-05 -1.2822e-02  6.7440e-04 -2.4290e-01  3.8754e-03  4.7493e-03  4.7196e-04 -1.4154e+00 30:51:02 9846
  iter  continuity  x-velocity  y-velocity  z-velocity      energy           k       omega    cm-1-res        Cm-1    cy-1-res        Cl-2    cl-1-res        Cl-1    cd-1-res        Cd-1     time/iter
   155  2.7567e-01  2.2363e-01  1.5848e-01  1.6102e-01  2.7211e-01  1.1730e-03  1.2804e-03  8.8104e-05 -1.2820e-02  6.7573e-04 -2.4273e-01  3.8286e-03  4.7676e-03  4.7368e-04 -1.4148e+00 30:49:43 9845
   156  2.7560e-01  2.2329e-01  1.5819e-01  1.6067e-01  2.7214e-01  1.1725e-03  1.2755e-03  9.4921e-05 -1.2819e-02  6.7699e-04 -2.4257e-01  3.7779e-03  4.7857e-03  4.7536e-04 -1.4141e+00 30:56:14 9844
   157  2.7552e-01  2.2295e-01  1.5790e-01  1.6032e-01  2.7217e-01  1.1719e-03  1.2707e-03  1.0197e-04 -1.2818e-02  6.7823e-04 -2.4240e-01  3.7199e-03  4.8035e-03  4.7699e-04 -1.4134e+00 30:53:28 9843
   158  2.7544e-01  2.2261e-01  1.5763e-01  1.5999e-01  2.7219e-01  1.1714e-03  1.2660e-03  1.0881e-04 -1.2816e-02  6.7954e-04 -2.4224e-01  3.6649e-03  4.8212e-03  4.7858e-04 -1.4128e+00 30:51:24 9842
   159  2.7535e-01  2.2226e-01  1.5738e-01  1.5966e-01  2.7220e-01  1.1708e-03  1.2613e-03  1.1582e-04 -1.2815e-02  6.8133e-04 -2.4207e-01  3.6193e-03  4.8387e-03  4.8012e-04 -1.4121e+00 30:49:43 9841
   160  2.7525e-01  2.2192e-01  1.5713e-01  1.5934e-01  2.7220e-01  1.1701e-03  1.2567e-03  1.2329e-04 -1.2813e-02  6.8266e-04 -2.4191e-01  3.5710e-03  4.8561e-03  4.8162e-04 -1.4114e+00 30:48:26 9840
   161  2.7515e-01  2.2158e-01  1.5690e-01  1.5905e-01  2.7219e-01  1.1695e-03  1.2523e-03  1.3164e-04 -1.2812e-02  6.8307e-04 -2.4174e-01  3.5045e-03  4.8731e-03  4.8308e-04 -1.4107e+00 30:47:29 9839
   162  2.7503e-01  2.2123e-01  1.5667e-01  1.5874e-01  2.7215e-01  1.1688e-03  1.2479e-03  1.3811e-04 -1.2810e-02  6.8438e-04 -2.4158e-01  3.4612e-03  4.8901e-03  4.8449e-04 -1.4100e+00 30:46:33 9838
   163  2.7489e-01  2.2090e-01  1.5646e-01  1.5844e-01  2.7211e-01  1.1681e-03  1.2435e-03  1.4353e-04 -1.2808e-02  6.8661e-04 -2.4141e-01  3.4327e-03  4.9069e-03  4.8587e-04 -1.4094e+00 30:45:48 9837
   164  2.7475e-01  2.2057e-01  1.5626e-01  1.5814e-01  2.7205e-01  1.1674e-03  1.2393e-03  1.4895e-04 -1.2806e-02  6.8939e-04 -2.4125e-01  3.4070e-03  4.9237e-03  4.8720e-04 -1.4087e+00 30:44:47 9836
   165  2.7460e-01  2.2024e-01  1.5607e-01  1.5787e-01  2.7198e-01  1.1667e-03  1.2352e-03  1.5616e-04 -1.2804e-02  6.9037e-04 -2.4108e-01  3.3579e-03  4.9403e-03  4.8850e-04 -1.4080e+00 30:43:56 9835
  iter  continuity  x-velocity  y-velocity  z-velocity      energy           k       omega    cm-1-res        Cm-1    cy-1-res        Cl-2    cl-1-res        Cl-1    cd-1-res        Cd-1     time/iter
   166  2.7443e-01  2.1991e-01  1.5589e-01  1.5761e-01  2.7189e-01  1.1660e-03  1.2311e-03  1.6337e-04 -1.2802e-02  6.9113e-04 -2.4091e-01  3.3082e-03  4.9567e-03  4.8975e-04 -1.4073e+00 30:45:56 9834
   167  2.7426e-01  2.1960e-01  1.5572e-01  1.5737e-01  2.7179e-01  1.1652e-03  1.2271e-03  1.7003e-04 -1.2800e-02  6.9208e-04 -2.4075e-01  3.2637e-03  4.9729e-03  4.9097e-04 -1.4066e+00 30:44:51 9833
   168  2.7407e-01  2.1930e-01  1.5556e-01  1.5714e-01  2.7167e-01  1.1645e-03  1.2232e-03  1.7843e-04 -1.2798e-02  6.9274e-04 -2.4058e-01  3.1920e-03  4.9888e-03  4.9215e-04 -1.4059e+00 30:48:36 9832
   169  2.7387e-01  2.1900e-01  1.5540e-01  1.5692e-01  2.7154e-01  1.1637e-03  1.2194e-03  1.8702e-04 -1.2795e-02  6.9433e-04 -2.4041e-01  3.1216e-03  5.0044e-03  4.9330e-04 -1.4052e+00 30:46:24 9831
   170  2.7375e-01  2.1876e-01  1.5530e-01  1.5689e-01  2.7147e-01  1.1629e-03  1.2156e-03  1.9431e-04 -1.2793e-02  6.9639e-04 -2.4025e-01  3.0717e-03  5.0199e-03  4.9441e-04 -1.4045e+00 30:44:25 9830
   171  2.7355e-01  2.1848e-01  1.5533e-01  1.5684e-01  2.7133e-01  1.1621e-03  1.2119e-03  2.0094e-04 -1.2790e-02  6.9805e-04 -2.4008e-01  3.0226e-03  5.0351e-03  4.9548e-04 -1.4038e+00 30:42:46 9829
   172  2.7338e-01  2.1822e-01  1.5524e-01  1.5676e-01  2.7122e-01  1.1613e-03  1.2083e-03  2.0879e-04 -1.2788e-02  6.9940e-04 -2.3991e-01  2.9688e-03  5.0501e-03  4.9651e-04 -1.4031e+00 30:41:22 9828
   173  2.7312e-01  2.1791e-01  1.5510e-01  1.5653e-01  2.7101e-01  1.1605e-03  1.2048e-03  2.1596e-04 -1.2785e-02  7.0130e-04 -2.3974e-01  2.9288e-03  5.0649e-03  4.9751e-04 -1.4024e+00 30:40:13 9827
   174  2.7285e-01  2.1762e-01  1.5498e-01  1.5635e-01  2.7079e-01  1.1596e-03  1.2013e-03  2.2095e-04 -1.2782e-02  7.0369e-04 -2.3957e-01  2.9019e-03  5.0797e-03  4.9848e-04 -1.4017e+00 30:41:27 9826
   175  2.7256e-01  2.1732e-01  1.5488e-01  1.5620e-01  2.7056e-01  1.1588e-03  1.1979e-03  2.2547e-04 -1.2779e-02  7.0556e-04 -2.3940e-01  2.8748e-03  5.0943e-03  4.9942e-04 -1.4010e+00 30:43:52 9825
   176  2.7226e-01  2.1703e-01  1.5479e-01  1.5607e-01  2.7031e-01  1.1579e-03  1.1946e-03  2.3112e-04 -1.2776e-02  7.0690e-04 -2.3924e-01  2.8346e-03  5.1088e-03  5.0032e-04 -1.4003e+00 30:41:24 9824
  iter  continuity  x-velocity  y-velocity  z-velocity      energy           k       omega    cm-1-res        Cm-1    cy-1-res        Cl-2    cl-1-res        Cl-1    cd-1-res        Cd-1     time/iter
   177  2.7195e-01  2.1675e-01  1.5473e-01  1.5598e-01  2.7005e-01  1.1570e-03  1.1913e-03  2.3621e-04 -1.2773e-02  7.0952e-04 -2.3907e-01  2.8117e-03  5.1232e-03  5.0119e-04 -1.3996e+00 30:39:18 9823
   178  2.7166e-01  2.1651e-01  1.5474e-01  1.5598e-01  2.6980e-01  1.1562e-03  1.1881e-03  2.4179e-04 -1.2770e-02  7.1128e-04 -2.3890e-01  2.7760e-03  5.1374e-03  5.0203e-04 -1.3989e+00 30:37:48 9822
   179  2.7133e-01  2.1623e-01  1.5468e-01  1.5592e-01  2.6952e-01  1.1553e-03  1.1850e-03  2.4785e-04 -1.2767e-02  7.1233e-04 -2.3873e-01  2.7337e-03  5.1515e-03  5.0283e-04 -1.3982e+00 30:36:36 9821
   180  2.7099e-01  2.1597e-01  1.5462e-01  1.5588e-01  2.6922e-01  1.1544e-03  1.1819e-03  2.5320e-04 -1.2764e-02  7.1399e-04 -2.3856e-01  2.7047e-03  5.1655e-03  5.0361e-04 -1.3975e+00 30:35:24 9820
   181  2.7064e-01  2.1571e-01  1.5459e-01  1.5588e-01  2.6891e-01  1.1535e-03  1.1789e-03  2.6001e-04 -1.2760e-02  7.1437e-04 -2.3838e-01  2.6681e-03  5.1793e-03  5.0435e-04 -1.3968e+00 30:34:21 9819
   182  2.7037e-01  2.1551e-01  1.5460e-01  1.5604e-01  2.6867e-01  1.1526e-03  1.1760e-03  2.6651e-04 -1.2757e-02  7.1496e-04 -2.3821e-01  2.6315e-03  5.1930e-03  5.0506e-04 -1.3961e+00 30:33:31 9818
   183  2.7004e-01  2.1531e-01  1.5464e-01  1.5617e-01  2.6839e-01  1.1517e-03  1.1732e-03  2.7122e-04 -1.2753e-02  7.1594e-04 -2.3804e-01  2.6143e-03  5.2066e-03  5.0574e-04 -1.3954e+00 30:32:45 9817
   184  2.6966e-01  2.1507e-01  1.5462e-01  1.5614e-01  2.6804e-01  1.1508e-03  1.1704e-03  2.7557e-04 -1.2750e-02  7.1748e-04 -2.3787e-01  2.6025e-03  5.2202e-03  5.0639e-04 -1.3947e+00 30:31:57 9816
   185  2.6928e-01  2.1484e-01  1.5462e-01  1.5614e-01  2.6768e-01  1.1499e-03  1.1676e-03  2.8033e-04 -1.2746e-02  7.1911e-04 -2.3770e-01  2.5897e-03  5.2337e-03  5.0702e-04 -1.3940e+00 30:33:22 9815
   186  2.6888e-01  2.1461e-01  1.5463e-01  1.5616e-01  2.6732e-01  1.1490e-03  1.1650e-03  2.8284e-04 -1.2743e-02  7.2119e-04 -2.3753e-01  2.5936e-03  5.2473e-03  5.0761e-04 -1.3933e+00 30:32:20 9814
   187  2.6847e-01  2.1440e-01  1.5466e-01  1.5621e-01  2.6695e-01  1.1481e-03  1.1624e-03  2.8599e-04 -1.2739e-02  7.2281e-04 -2.3736e-01  2.5951e-03  5.2610e-03  5.0818e-04 -1.3926e+00 30:35:19 9813
  iter  continuity  x-velocity  y-velocity  z-velocity      energy           k       omega    cm-1-res        Cm-1    cy-1-res        Cl-2    cl-1-res        Cl-1    cd-1-res        Cd-1     time/iter
   188  2.6806e-01  2.1422e-01  1.5474e-01  1.5630e-01  2.6658e-01  1.1472e-03  1.1599e-03  2.9170e-04 -1.2735e-02  7.2438e-04 -2.3719e-01  2.5804e-03  5.2746e-03  5.0871e-04 -1.3919e+00 30:33:38 9812
   189  2.6763e-01  2.1404e-01  1.5479e-01  1.5641e-01  2.6618e-01  1.1463e-03  1.1574e-03  2.9921e-04 -1.2732e-02  7.2596e-04 -2.3702e-01  2.5582e-03  5.2881e-03  5.0922e-04 -1.3912e+00 30:32:20 9811
   190  2.6721e-01  2.1387e-01  1.5485e-01  1.5652e-01  2.6579e-01  1.1454e-03  1.1550e-03  3.0522e-04 -1.2728e-02  7.2739e-04 -2.3684e-01  2.5315e-03  5.3016e-03  5.0970e-04 -1.3904e+00 30:31:16 9810
   191  2.6677e-01  2.1371e-01  1.5489e-01  1.5665e-01  2.6538e-01  1.1445e-03  1.1526e-03  3.1196e-04 -1.2724e-02  7.2859e-04 -2.3667e-01  2.4993e-03  5.3148e-03  5.1015e-04 -1.3897e+00 30:30:17 9809
   192  2.6632e-01  2.1356e-01  1.5493e-01  1.5678e-01  2.6497e-01  1.1436e-03  1.1503e-03  3.1872e-04 -1.2720e-02  7.2997e-04 -2.3650e-01  2.4790e-03  5.3281e-03  5.1057e-04 -1.3890e+00 30:34:42 9808
   193  2.6587e-01  2.1343e-01  1.5496e-01  1.5692e-01  2.6455e-01  1.1427e-03  1.1481e-03  3.2521e-04 -1.2716e-02  7.3116e-04 -2.3633e-01  2.4569e-03  5.3412e-03  5.1097e-04 -1.3883e+00 30:33:07 9807
   194  2.6541e-01  2.1330e-01  1.5498e-01  1.5706e-01  2.6412e-01  1.1418e-03  1.1459e-03  3.3018e-04 -1.2711e-02  7.3200e-04 -2.3615e-01  2.4367e-03  5.3542e-03  5.1134e-04 -1.3876e+00 30:31:50 9806
   195  2.6495e-01  2.1319e-01  1.5501e-01  1.5721e-01  2.6369e-01  1.1409e-03  1.1437e-03  3.3398e-04 -1.2707e-02  7.3447e-04 -2.3598e-01  2.4551e-03  5.3674e-03  5.1168e-04 -1.3869e+00 30:30:29 9805
   196  2.6449e-01  2.1308e-01  1.5505e-01  1.5738e-01  2.6326e-01  1.1400e-03  1.1416e-03  3.3832e-04 -1.2703e-02  7.3586e-04 -2.3581e-01  2.4615e-03  5.3806e-03  5.1201e-04 -1.3862e+00 30:29:47 9804
   197  2.6411e-01  2.1305e-01  1.5513e-01  1.5771e-01  2.6291e-01  1.1391e-03  1.1396e-03  3.4271e-04 -1.2698e-02  7.3699e-04 -2.3563e-01  2.4599e-03  5.3939e-03  5.1231e-04 -1.3855e+00 30:29:23 9803
   198  2.6361e-01  2.1295e-01  1.5518e-01  1.5785e-01  2.6244e-01  1.1382e-03  1.1376e-03  3.5006e-04 -1.2694e-02  7.3839e-04 -2.3546e-01  2.4301e-03  5.4070e-03  5.1258e-04 -1.3848e+00 30:28:47 9802
  iter  continuity  x-velocity  y-velocity  z-velocity      energy           k       omega    cm-1-res        Cm-1    cy-1-res        Cl-2    cl-1-res        Cl-1    cd-1-res        Cd-1     time/iter
   199  2.6320e-01  2.1294e-01  1.5526e-01  1.5816e-01  2.6206e-01  1.1373e-03  1.1357e-03  3.5722e-04 -1.2689e-02  7.4006e-04 -2.3528e-01  2.4005e-03  5.4201e-03  5.1283e-04 -1.3841e+00 30:28:11 9801
   200  2.6268e-01  2.1286e-01  1.5530e-01  1.5829e-01  2.6157e-01  1.1364e-03  1.1338e-03  3.6379e-04 -1.2685e-02  7.4247e-04 -2.3511e-01  2.3816e-03  5.4330e-03  5.1306e-04 -1.3834e+00 30:27:44 9800
   201  2.6218e-01  2.1279e-01  1.5537e-01  1.5845e-01  2.6110e-01  1.1355e-03  1.1320e-03  3.7222e-04 -1.2680e-02  7.4383e-04 -2.3494e-01  2.3464e-03  5.4458e-03  5.1327e-04 -1.3826e+00 30:27:15 9799
   202  2.6167e-01  2.1273e-01  1.5543e-01  1.5862e-01  2.6062e-01  1.1346e-03  1.1302e-03  3.7924e-04 -1.2675e-02  7.4555e-04 -2.3476e-01  2.3262e-03  5.4585e-03  5.1346e-04 -1.3819e+00 30:26:57 9798
   203  2.6125e-01  2.1275e-01  1.5552e-01  1.5897e-01  2.6022e-01  1.1337e-03  1.1284e-03  3.8528e-04 -1.2670e-02  7.4706e-04 -2.3458e-01  2.3134e-03  5.4711e-03  5.1362e-04 -1.3812e+00 30:26:40 9797
   204  2.6072e-01  2.1270e-01  1.5559e-01  1.5911e-01  2.5972e-01  1.1328e-03  1.1267e-03  3.8918e-04 -1.2666e-02  7.4863e-04 -2.3441e-01  2.3141e-03  5.4838e-03  5.1377e-04 -1.3805e+00 30:26:19 9796
   205  2.6020e-01  2.1267e-01  1.5564e-01  1.5927e-01  2.5923e-01  1.1320e-03  1.1251e-03  3.9217e-04 -1.2661e-02  7.5015e-04 -2.3423e-01  2.3187e-03  5.4966e-03  5.1389e-04 -1.3798e+00 30:25:50 9795
   206  2.5968e-01  2.1264e-01  1.5569e-01  1.5946e-01  2.5875e-01  1.1311e-03  1.1235e-03  3.9364e-04 -1.2656e-02  7.5138e-04 -2.3406e-01  2.3345e-03  5.5094e-03  5.1400e-04 -1.3791e+00 30:25:28 9794
   207  2.5918e-01  2.1262e-01  1.5573e-01  1.5965e-01  2.5828e-01  1.1302e-03  1.1219e-03  3.9412e-04 -1.2651e-02  7.5284e-04 -2.3388e-01  2.3568e-03  5.5224e-03  5.1408e-04 -1.3784e+00 30:25:12 9793
   208  2.5868e-01  2.1262e-01  1.5578e-01  1.5988e-01  2.5781e-01  1.1294e-03  1.1204e-03  3.9733e-04 -1.2646e-02  7.5448e-04 -2.3371e-01  2.3617e-03  5.5355e-03  5.1415e-04 -1.3777e+00 30:24:57 9792
   209  2.5819e-01  2.1264e-01  1.5584e-01  1.6011e-01  2.5737e-01  1.1285e-03  1.1190e-03  4.0031e-04 -1.2640e-02  7.5556e-04 -2.3353e-01  2.3646e-03  5.5486e-03  5.1420e-04 -1.3770e+00 30:24:47 9791
  iter  continuity  x-velocity  y-velocity  z-velocity      energy           k       omega    cm-1-res        Cm-1    cy-1-res        Cl-2    cl-1-res        Cl-1    cd-1-res        Cd-1     time/iter
   210  2.5772e-01  2.1267e-01  1.5591e-01  1.6034e-01  2.5693e-01  1.1277e-03  1.1176e-03  4.0005e-04 -1.2635e-02  7.5681e-04 -2.3335e-01  2.3924e-03  5.5619e-03  5.1423e-04 -1.3763e+00 30:24:27 9790
   211  2.5732e-01  2.1276e-01  1.5599e-01  1.6072e-01  2.5657e-01  1.1268e-03  1.1162e-03  4.0136e-04 -1.2630e-02  7.5823e-04 -2.3318e-01  2.4080e-03  5.5754e-03  5.1424e-04 -1.3756e+00 30:24:11 9789
   212  2.5683e-01  2.1278e-01  1.5603e-01  1.6090e-01  2.5612e-01  1.1260e-03  1.1149e-03  4.0296e-04 -1.2625e-02  7.5965e-04 -2.3300e-01  2.4201e-03  5.5889e-03  5.1423e-04 -1.3748e+00 30:24:02 9788
   213  2.5639e-01  2.1286e-01  1.5608e-01  1.6119e-01  2.5572e-01  1.1252e-03  1.1136e-03  4.0454e-04 -1.2620e-02  7.6118e-04 -2.3282e-01  2.4259e-03  5.6025e-03  5.1420e-04 -1.3741e+00 30:23:31 9787
   214  2.5601e-01  2.1295e-01  1.5616e-01  1.6152e-01  2.5538e-01  1.1243e-03  1.1123e-03  4.0740e-04 -1.2615e-02  7.6255e-04 -2.3264e-01  2.4272e-03  5.6161e-03  5.1415e-04 -1.3734e+00 30:23:15 9786
   215  2.5555e-01  2.1298e-01  1.5618e-01  1.6166e-01  2.5497e-01  1.1235e-03  1.1111e-03  4.1055e-04 -1.2610e-02  7.6403e-04 -2.3247e-01  2.4293e-03  5.6298e-03  5.1409e-04 -1.3727e+00 30:26:58 9785
   216  2.5512e-01  2.1304e-01  1.5621e-01  1.6182e-01  2.5459e-01  1.1227e-03  1.1099e-03  4.1279e-04 -1.2605e-02  7.6549e-04 -2.3229e-01  2.4406e-03  5.6436e-03  5.1401e-04 -1.3720e+00 30:26:06 9784
   217  2.5469e-01  2.1310e-01  1.5623e-01  1.6199e-01  2.5422e-01  1.1219e-03  1.1087e-03  4.1369e-04 -1.2599e-02  7.6672e-04 -2.3211e-01  2.4577e-03  5.6575e-03  5.1392e-04 -1.3713e+00 30:25:17 9783
   218  2.5429e-01  2.1317e-01  1.5626e-01  1.6217e-01  2.5386e-01  1.1211e-03  1.1076e-03  4.1527e-04 -1.2594e-02  7.6893e-04 -2.3193e-01  2.4813e-03  5.6715e-03  5.1381e-04 -1.3706e+00 30:24:36 9782
   219  2.5391e-01  2.1324e-01  1.5629e-01  1.6235e-01  2.5354e-01  1.1203e-03  1.1065e-03  4.1674e-04 -1.2589e-02  7.7076e-04 -2.3175e-01  2.4963e-03  5.6857e-03  5.1368e-04 -1.3699e+00 30:24:18 9781
   220  2.5355e-01  2.1333e-01  1.5632e-01  1.6256e-01  2.5323e-01  1.1195e-03  1.1054e-03  4.1676e-04 -1.2584e-02  7.7265e-04 -2.3157e-01  2.5221e-03  5.7001e-03  5.1354e-04 -1.3692e+00 30:23:52 9780
  iter  continuity  x-velocity  y-velocity  z-velocity      energy           k       omega    cm-1-res        Cm-1    cy-1-res        Cl-2    cl-1-res        Cl-1    cd-1-res        Cd-1     time/iter
   221  2.5319e-01  2.1342e-01  1.5634e-01  1.6274e-01  2.5293e-01  1.1187e-03  1.1043e-03  4.1785e-04 -1.2578e-02  7.7424e-04 -2.3140e-01  2.5349e-03  5.7146e-03  5.1338e-04 -1.3685e+00 30:23:37 9779
   222  2.5286e-01  2.1349e-01  1.5638e-01  1.6294e-01  2.5266e-01  1.1180e-03  1.1033e-03  4.1602e-04 -1.2573e-02  7.7634e-04 -2.3122e-01  2.5688e-03  5.7293e-03  5.1321e-04 -1.3678e+00 30:23:03 9778
   223  2.5254e-01  2.1359e-01  1.5639e-01  1.6311e-01  2.5241e-01  1.1172e-03  1.1023e-03  4.1550e-04 -1.2568e-02  7.7820e-04 -2.3104e-01  2.5962e-03  5.7442e-03  5.1302e-04 -1.3671e+00 30:22:28 9777
   224  2.5224e-01  2.1370e-01  1.5639e-01  1.6329e-01  2.5218e-01  1.1165e-03  1.1013e-03  4.1729e-04 -1.2563e-02  7.8016e-04 -2.3086e-01  2.6066e-03  5.7592e-03  5.1282e-04 -1.3664e+00 30:22:07 9776
   225  2.5196e-01  2.1381e-01  1.5639e-01  1.6345e-01  2.5196e-01  1.1157e-03  1.1004e-03  4.1788e-04 -1.2558e-02  7.8208e-04 -2.3068e-01  2.6260e-03  5.7744e-03  5.1261e-04 -1.3657e+00 30:21:35 9775
   226  2.5172e-01  2.1393e-01  1.5640e-01  1.6363e-01  2.5178e-01  1.1150e-03  1.0994e-03  4.1663e-04 -1.2552e-02  7.8365e-04 -2.3049e-01  2.6390e-03  5.7897e-03  5.1238e-04 -1.3650e+00 30:21:07 9774
   227  2.5146e-01  2.1405e-01  1.5640e-01  1.6380e-01  2.5159e-01  1.1142e-03  1.0985e-03  4.1847e-04 -1.2547e-02  7.8521e-04 -2.3031e-01  2.6416e-03  5.8050e-03  5.1214e-04 -1.3643e+00 30:20:44 9773
   228  2.5124e-01  2.1416e-01  1.5639e-01  1.6396e-01  2.5144e-01  1.1135e-03  1.0977e-03  4.2022e-04 -1.2542e-02  7.8685e-04 -2.3013e-01  2.6522e-03  5.8205e-03  5.1188e-04 -1.3636e+00 30:20:09 9772
   229  2.5103e-01  2.1428e-01  1.5638e-01  1.6412e-01  2.5129e-01  1.1128e-03  1.0968e-03  4.1937e-04 -1.2537e-02  7.8842e-04 -2.2995e-01  2.6839e-03  5.8361e-03  5.1162e-04 -1.3629e+00 30:19:32 9771
   230  2.5084e-01  2.1441e-01  1.5637e-01  1.6428e-01  2.5117e-01  1.1121e-03  1.0959e-03  4.1692e-04 -1.2531e-02  7.8978e-04 -2.2977e-01  2.7325e-03  5.8521e-03  5.1134e-04 -1.3622e+00 30:18:51 9770
[...]
  9917  7.4086e-03  2.0997e-03  2.6908e-03  2.4559e-03  7.6835e-03  2.9437e-05  1.9656e-05  2.8816e-03  9.9953e-05  5.4057e-04  6.3395e-04  7.3730e-03  9.1666e-05  1.5938e-05 -4.6808e-01  0:15:34   83
  9918  7.3119e-03  2.0929e-03  2.6447e-03  2.6632e-03  7.5839e-03  2.9430e-05  1.9570e-05  3.4340e-03  9.9611e-05  1.1174e-04  6.3388e-04  4.4914e-03  9.2080e-05  1.5884e-05 -4.6807e-01  0:15:23   82
  9919  7.1862e-03  2.0323e-03  2.5019e-03  2.4156e-03  7.4520e-03  2.9424e-05  1.9489e-05  3.6844e-03  9.9245e-05  3.9910e-04  6.3413e-04  5.1891e-03  9.2560e-05  1.6021e-05 -4.6806e-01  0:15:11   81
  9920  7.2643e-03  2.0609e-03  2.5348e-03  2.7187e-03  7.5337e-03  2.9417e-05  1.9400e-05  3.8846e-03  9.8861e-05  7.0785e-06  6.3414e-04  7.3801e-03  9.3248e-05  1.6198e-05 -4.6805e-01  0:15:00   80
  9921  7.6213e-03  2.1540e-03  2.6008e-03  2.6567e-03  7.9037e-03  2.9410e-05  1.9364e-05  3.2248e-03  9.8543e-05  5.0000e-04  6.3382e-04  9.3348e-03  9.4127e-05  1.6094e-05 -4.6805e-01  0:14:49   79
  9922  7.3940e-03  2.0838e-03  2.4679e-03  2.5279e-03  7.6671e-03  2.9403e-05  1.9096e-05  3.5885e-03  9.8191e-05  2.7177e-04  6.3399e-04  7.1878e-03  9.4808e-05  1.5918e-05 -4.6804e-01  0:14:37   78
  iter  continuity  x-velocity  y-velocity  z-velocity      energy           k       omega    cm-1-res        Cm-1    cy-1-res        Cl-2    cl-1-res        Cl-1    cd-1-res        Cd-1     time/iter
  9923  7.5914e-03  2.1798e-03  3.0443e-03  2.8649e-03  7.8741e-03  2.9393e-05  1.8974e-05  3.6671e-03  9.7832e-05  4.0846e-04  6.3425e-04  4.9831e-03  9.5283e-05  1.6015e-05 -4.6803e-01  0:14:26   77
  9924  7.6051e-03  2.1600e-03  2.7829e-03  2.6378e-03  7.8870e-03  2.9384e-05  1.8863e-05  3.6961e-03  9.7472e-05  4.7299e-04  6.3395e-04  4.7353e-03  9.5737e-05  1.6098e-05 -4.6802e-01  0:14:15   76
  9925  7.4495e-03  2.1246e-03  2.7475e-03  2.7923e-03  7.7263e-03  2.9379e-05  1.8666e-05  2.6245e-03  9.7217e-05  9.5987e-04  6.3334e-04  5.8770e-03  9.6303e-05  1.5935e-05 -4.6802e-01  0:14:04   75
  9926  7.3814e-03  2.1197e-03  2.7957e-03  2.6586e-03  7.6558e-03  2.9373e-05  1.8667e-05  4.2697e-03  9.6803e-05  1.2698e-05  6.3334e-04  4.8350e-03  9.6770e-05  1.5788e-05 -4.6801e-01  0:13:52   74
  9927  7.3048e-03  2.0912e-03  2.6814e-03  2.5645e-03  7.5757e-03  2.9368e-05  1.8651e-05  4.1914e-03  9.6399e-05  5.4524e-04  6.3368e-04  6.2061e-03  9.7375e-05  1.5845e-05 -4.6800e-01  0:13:41   73
  9928  7.3266e-03  2.1226e-03  2.5503e-03  2.7768e-03  7.5986e-03  2.9362e-05  1.8539e-05  2.8374e-03  9.6126e-05  9.8036e-05  6.3374e-04  7.7736e-03  9.8138e-05  1.6001e-05 -4.6799e-01  0:13:30   72
  9929  7.2753e-03  2.1003e-03  2.5784e-03  2.5005e-03  7.5449e-03  2.9357e-05  1.8654e-05  2.2347e-03  9.5912e-05  4.4548e-04  6.3346e-04  8.7080e-03  9.9000e-05  1.5972e-05 -4.6799e-01  0:13:19   71
  9930  7.3198e-03  2.1106e-03  2.6695e-03  2.5818e-03  7.5912e-03  2.9355e-05  1.8773e-05  2.8289e-03  9.5642e-05  1.9812e-04  6.3334e-04  7.1641e-03  9.9714e-05  1.5827e-05 -4.6798e-01  0:13:07   70
  9931  7.4490e-03  2.1456e-03  2.7555e-03  2.7514e-03  7.7252e-03  2.9352e-05  1.8869e-05  4.0366e-03  9.5257e-05  1.9061e-04  6.3346e-04  1.6256e-03  9.9876e-05  1.5873e-05 -4.6797e-01  0:12:56   69
  9932  7.3191e-03  2.0990e-03  2.6083e-03  2.4822e-03  7.5898e-03  2.9349e-05  1.8893e-05  2.8278e-03  9.4988e-05  1.6038e-05  6.3345e-04  3.5068e-03  1.0023e-04  1.5875e-05 -4.6797e-01  0:12:45   68
  9933  7.4840e-03  2.1767e-03  2.7448e-03  2.9509e-03  7.7625e-03  2.9344e-05  1.8884e-05  3.1490e-03  9.4690e-05  1.2150e-04  6.3337e-04  5.8810e-03  1.0082e-04  1.5886e-05 -4.6796e-01  0:12:34   67
  iter  continuity  x-velocity  y-velocity  z-velocity      energy           k       omega    cm-1-res        Cm-1    cy-1-res        Cl-2    cl-1-res        Cl-1    cd-1-res        Cd-1     time/iter
  9934  7.3041e-03  2.1193e-03  2.6742e-03  2.6621e-03  7.5750e-03  2.9339e-05  1.8919e-05  3.6955e-03  9.4342e-05  1.5353e-04  6.3327e-04  7.1927e-03  1.0155e-04  1.5771e-05 -4.6795e-01  0:12:23   66
  9935  7.3127e-03  2.1175e-03  2.6308e-03  2.5486e-03  7.5835e-03  2.9333e-05  1.8833e-05  4.0019e-03  9.3966e-05  8.8131e-05  6.3322e-04  2.7993e-03  1.0184e-04  1.5806e-05 -4.6794e-01  0:12:11   65
  9936  7.2365e-03  2.1053e-03  2.7237e-03  2.5965e-03  7.5046e-03  2.9329e-05  1.8860e-05  2.2594e-03  9.3754e-05  6.3230e-04  6.3282e-04  3.8385e-03  1.0223e-04  1.5868e-05 -4.6794e-01  0:12:00   64
  9937  7.2387e-03  2.1052e-03  2.6699e-03  2.5327e-03  7.5070e-03  2.9327e-05  1.8946e-05  1.5120e-03  9.3612e-05  2.5143e-04  6.3266e-04  5.3736e-03  1.0278e-04  1.5780e-05 -4.6793e-01  0:11:49   63
  9938  7.3042e-03  2.1413e-03  2.5946e-03  2.6739e-03  7.5752e-03  2.9324e-05  1.9041e-05  2.5564e-03  9.3373e-05  1.7647e-04  6.3277e-04  5.4505e-03  1.0334e-04  1.5665e-05 -4.6792e-01  0:11:37   62
  9939  7.3470e-03  2.1453e-03  2.8154e-03  2.5823e-03  7.6190e-03  2.9322e-05  1.9148e-05  3.2560e-03  9.3070e-05  1.5579e-04  6.3287e-04  5.1829e-03  1.0388e-04  1.5795e-05 -4.6791e-01  0:11:26   61
  9940  7.3606e-03  2.1493e-03  2.7065e-03  2.6876e-03  7.6334e-03  2.9317e-05  1.9064e-05  3.2542e-03  9.2769e-05  4.1381e-04  6.3261e-04  5.3875e-03  1.0445e-04  1.5880e-05 -4.6791e-01  0:11:15   60
  9941  7.3609e-03  2.1600e-03  2.6374e-03  2.7507e-03  7.6340e-03  2.9311e-05  1.9036e-05  3.0073e-03  9.2490e-05  5.0285e-04  6.3229e-04  4.2256e-03  1.0489e-04  1.5744e-05 -4.6790e-01  0:11:04   59
  9942  7.1852e-03  2.1187e-03  2.7584e-03  2.5823e-03  7.4515e-03  2.9305e-05  1.8983e-05  2.3224e-03  9.2276e-05  1.1025e-04  6.3222e-04  1.5535e-03  1.0505e-04  1.5559e-05 -4.6789e-01  0:10:52   58
  9943  7.3250e-03  2.1831e-03  2.8393e-03  2.5783e-03  7.5969e-03  2.9298e-05  1.8984e-05  2.7423e-03  9.2024e-05  1.3716e-04  6.3231e-04  1.2608e-03  1.0518e-04  1.5662e-05 -4.6788e-01  0:10:41   57
  9944  7.2479e-03  2.1360e-03  2.4764e-03  2.6767e-03  7.5154e-03  2.9293e-05  1.9004e-05  2.3533e-03  9.1808e-05  5.7093e-04  6.3194e-04  5.2573e-03  1.0574e-04  1.5762e-05 -4.6788e-01  0:10:30   56
  iter  continuity  x-velocity  y-velocity  z-velocity      energy           k       omega    cm-1-res        Cm-1    cy-1-res        Cl-2    cl-1-res        Cl-1    cd-1-res        Cd-1     time/iter
  9945  7.1407e-03  2.1136e-03  2.6643e-03  2.7314e-03  7.4050e-03  2.9289e-05  1.8943e-05  1.8778e-03  9.1636e-05  8.2854e-04  6.3142e-04  6.4779e-03  1.0643e-04  1.5777e-05 -4.6787e-01  0:10:18   55
  9946  7.2827e-03  2.1597e-03  2.7305e-03  2.6440e-03  7.5526e-03  2.9285e-05  1.9010e-05  2.1623e-03  9.1438e-05  1.4467e-05  6.3143e-04  5.5448e-03  1.0702e-04  1.5597e-05 -4.6786e-01  0:10:07   54
  9947  7.2589e-03  2.1439e-03  2.5771e-03  2.5044e-03  7.5265e-03  2.9282e-05  1.9063e-05  2.8576e-03  9.1177e-05  3.0196e-04  6.3162e-04  3.7106e-03  1.0742e-04  1.5564e-05 -4.6785e-01  0:09:56   53
  9948  7.2608e-03  2.1654e-03  2.8190e-03  2.7439e-03  7.5299e-03  2.9277e-05  1.9052e-05  3.7356e-03  9.0838e-05  4.9135e-04  6.3131e-04  2.5904e-03  1.0770e-04  1.5671e-05 -4.6785e-01  0:09:45   52
  9949  7.2803e-03  2.1519e-03  2.7293e-03  2.6315e-03  7.5494e-03  2.9273e-05  1.9100e-05  3.0053e-03  9.0566e-05  6.9395e-04  6.3087e-04  1.3736e-03  1.0785e-04  1.5627e-05 -4.6784e-01  0:09:33   51
  9950  7.1339e-03  2.1100e-03  2.5994e-03  2.6102e-03  7.3971e-03  2.9269e-05  1.9015e-05  2.5756e-03  9.0333e-05  3.7446e-04  6.3064e-04  3.0517e-03  1.0818e-04  1.5543e-05 -4.6783e-01  0:09:22   50
  9951  7.2253e-03  2.1386e-03  2.6749e-03  2.6152e-03  7.4921e-03  2.9265e-05  1.9126e-05  3.4559e-03  9.0022e-05  5.7391e-05  6.3067e-04  5.0386e-03  1.0873e-04  1.5595e-05 -4.6783e-01  0:09:11   49
  9952  7.1407e-03  2.1137e-03  2.4972e-03  2.6984e-03  7.4037e-03  2.9263e-05  1.9176e-05  2.5245e-03  8.9795e-05  2.6601e-04  6.3051e-04  6.4700e-03  1.0943e-04  1.5680e-05 -4.6782e-01  0:09:00   48
  9953  7.3359e-03  2.1918e-03  2.8825e-03  2.7564e-03  7.6082e-03  2.9258e-05  1.9286e-05  1.9499e-03  8.9621e-05  8.1969e-04  6.2999e-04  5.5165e-03  1.1004e-04  1.5551e-05 -4.6781e-01  0:08:48   47
  9954  7.3327e-03  2.1636e-03  2.5011e-03  2.6314e-03  7.6027e-03  2.9254e-05  1.9356e-05  2.2583e-03  8.9419e-05  2.1026e-04  6.2986e-04  3.1298e-03  1.1039e-04  1.5414e-05 -4.6780e-01  0:08:37   46
  9955  7.0857e-03  2.1011e-03  2.7463e-03  2.6696e-03  7.3467e-03  2.9248e-05  1.9135e-05  2.8093e-03  8.9168e-05  6.0311e-05  6.2989e-04  2.7884e-03  1.1070e-04  1.5484e-05 -4.6780e-01  0:08:26   45
  iter  continuity  x-velocity  y-velocity  z-velocity      energy           k       omega    cm-1-res        Cm-1    cy-1-res        Cl-2    cl-1-res        Cl-1    cd-1-res        Cd-1     time/iter
  9956  7.2856e-03  2.1693e-03  2.8048e-03  2.8201e-03  7.5551e-03  2.9242e-05  1.9255e-05  2.6739e-03  8.8930e-05  2.3298e-04  6.2975e-04  2.8105e-03  1.1101e-04  1.5607e-05 -4.6779e-01  0:08:15   44
  9957  7.1463e-03  2.1257e-03  2.6498e-03  2.5308e-03  7.4095e-03  2.9239e-05  1.9212e-05  2.9123e-03  8.8672e-05  8.9344e-04  6.2919e-04  3.7145e-03  1.1142e-04  1.5522e-05 -4.6778e-01  0:08:03   43
  9958  7.0955e-03  2.1389e-03  2.6544e-03  2.6861e-03  7.3581e-03  2.9232e-05  1.9151e-05  2.4776e-03  8.8453e-05  7.9845e-04  6.2868e-04  3.5920e-03  1.1182e-04  1.5383e-05 -4.6777e-01  0:07:52   42
  9959  7.1378e-03  2.1323e-03  2.7447e-03  2.4840e-03  7.4008e-03  2.9227e-05  1.9225e-05  3.2394e-03  8.8167e-05  4.0166e-04  6.2843e-04  2.7891e-03  1.1214e-04  1.5458e-05 -4.6777e-01  0:07:41   41
  9960  7.0257e-03  2.1039e-03  2.5653e-03  2.4579e-03  7.2842e-03  2.9226e-05  1.9206e-05  2.4233e-03  8.7954e-05  5.9530e-04  6.2806e-04  2.7787e-03  1.1245e-04  1.5467e-05 -4.6776e-01  0:07:30   40
  9961  7.1742e-03  2.1514e-03  2.8635e-03  2.6718e-03  7.4393e-03  2.9222e-05  1.9260e-05  1.3727e-03  8.7834e-05  7.2593e-04  6.2760e-04  4.8175e-03  1.1299e-04  1.5467e-05 -4.6775e-01  0:07:18   39
  9962  7.1390e-03  2.1394e-03  2.6272e-03  2.6501e-03  7.4021e-03  2.9219e-05  1.9224e-05  2.0863e-03  8.7651e-05  1.0614e-04  6.2767e-04  3.1691e-03  1.1335e-04  1.5318e-05 -4.6775e-01  0:07:07   38
  9963  7.2556e-03  2.1951e-03  2.7595e-03  2.6888e-03  7.5235e-03  2.9215e-05  1.9130e-05  2.9520e-03  8.7393e-05  2.8421e-04  6.2749e-04  3.7897e-03  1.1378e-04  1.5349e-05 -4.6774e-01  0:06:57   37
  9964  7.1354e-03  2.1556e-03  2.5942e-03  2.7007e-03  7.3981e-03  2.9211e-05  1.9211e-05  3.1437e-03  8.7119e-05  7.4142e-04  6.2703e-04  3.1732e-03  1.1415e-04  1.5477e-05 -4.6773e-01  0:06:45   36
  9965  7.0997e-03  2.1482e-03  2.6560e-03  2.7545e-03  7.3620e-03  2.9206e-05  1.9046e-05  3.1673e-03  8.6844e-05  8.0633e-04  6.2652e-04  3.0476e-03  1.1449e-04  1.5461e-05 -4.6772e-01  0:06:34   35
  9966  7.1451e-03  2.1675e-03  2.6625e-03  2.7167e-03  7.4090e-03  2.9202e-05  1.9230e-05  1.8537e-03  8.6683e-05  7.0996e-04  6.2608e-04  4.1139e-03  1.1497e-04  1.5271e-05 -4.6772e-01  0:06:23   34
  iter  continuity  x-velocity  y-velocity  z-velocity      energy           k       omega    cm-1-res        Cm-1    cy-1-res        Cl-2    cl-1-res        Cl-1    cd-1-res        Cd-1     time/iter
  9967  7.1567e-03  2.1612e-03  2.7176e-03  2.6414e-03  7.4205e-03  2.9201e-05  1.9282e-05  1.3839e-03  8.6563e-05  1.3998e-04  6.2599e-04  2.0485e-03  1.1520e-04  1.5182e-05 -4.6771e-01  0:06:11   33
  9968  7.1589e-03  2.1773e-03  2.6372e-03  2.7849e-03  7.4231e-03  2.9197e-05  1.9304e-05  2.0045e-03  8.6390e-05  5.3640e-04  6.2565e-04  3.2282e-05  1.1520e-04  1.5289e-05 -4.6770e-01  0:06:00   32
  9969  7.0728e-03  2.1547e-03  2.7441e-03  2.6671e-03  7.3337e-03  2.9194e-05  1.9405e-05  1.8956e-03  8.6227e-05  9.1349e-04  6.2508e-04  2.9243e-03  1.1554e-04  1.5395e-05 -4.6770e-01  0:05:49   31
  9970  6.9850e-03  2.1230e-03  2.5591e-03  2.4618e-03  7.2421e-03  2.9192e-05  1.9435e-05  1.4273e-03  8.6104e-05  3.5082e-04  6.2486e-04  4.4490e-03  1.1605e-04  1.5323e-05 -4.6769e-01  0:05:37   30
  9971  7.1785e-03  2.1849e-03  2.9850e-03  2.5633e-03  7.4434e-03  2.9189e-05  1.9517e-05  1.6705e-03  8.5960e-05  3.7390e-05  6.2484e-04  2.2782e-03  1.1632e-04  1.5283e-05 -4.6768e-01  0:05:26   29
  9972  7.0820e-03  2.1599e-03  2.7038e-03  2.6094e-03  7.3427e-03  2.9184e-05  1.9434e-05  2.0354e-03  8.5786e-05  6.7120e-04  6.2442e-04  9.7121e-04  1.1643e-04  1.5230e-05 -4.6767e-01  0:05:15   28
  9973  7.0451e-03  2.1638e-03  2.6954e-03  2.6391e-03  7.3054e-03  2.9179e-05  1.9385e-05  1.1210e-03  8.5690e-05  1.1065e-03  6.2373e-04  1.2085e-03  1.1657e-04  1.5133e-05 -4.6767e-01  0:05:04   27
  9974  7.0517e-03  2.1493e-03  2.5984e-03  2.6977e-03  7.3114e-03  2.9176e-05  1.9475e-05  1.7765e-03  8.5538e-05  2.1505e-04  6.2360e-04  1.2396e-03  1.1672e-04  1.5227e-05 -4.6766e-01  0:04:52   26
  9975  7.0209e-03  2.1379e-03  2.5856e-03  2.7539e-03  7.2796e-03  2.9170e-05  1.9352e-05  2.0219e-03  8.5365e-05  6.6345e-05  6.2364e-04  2.7310e-03  1.1704e-04  1.5197e-05 -4.6765e-01  0:04:41   25
  9976  7.1299e-03  2.1801e-03  2.6352e-03  2.8306e-03  7.3931e-03  2.9163e-05  1.9292e-05  1.4279e-03  8.5243e-05  4.5624e-04  6.2335e-04  3.4863e-03  1.1745e-04  1.5207e-05 -4.6765e-01  0:04:30   24
  9977  6.9841e-03  2.1309e-03  2.4087e-03  2.6318e-03  7.2411e-03  2.9160e-05  1.9256e-05  4.9684e-04  8.5286e-05  8.0203e-04  6.2285e-04  2.2345e-03  1.1771e-04  1.5124e-05 -4.6764e-01  0:04:19   23
  iter  continuity  x-velocity  y-velocity  z-velocity      energy           k       omega    cm-1-res        Cm-1    cy-1-res        Cl-2    cl-1-res        Cl-1    cd-1-res        Cd-1     time/iter
  9978  6.9733e-03  2.1518e-03  2.6618e-03  2.6604e-03  7.2308e-03  2.9156e-05  1.9285e-05  1.0448e-03  8.5197e-05  3.2315e-04  6.2265e-04  9.6776e-05  1.1770e-04  1.5070e-05 -4.6763e-01  0:04:07   22
  9979  6.9968e-03  2.1440e-03  2.7078e-03  2.5968e-03  7.2540e-03  2.9154e-05  1.9335e-05  2.0075e-03  8.5026e-05  2.0972e-04  6.2278e-04  6.3631e-04  1.1777e-04  1.5158e-05 -4.6762e-01  0:03:56   21
  9980  6.9812e-03  2.1283e-03  2.6702e-03  2.5785e-03  7.2377e-03  2.9150e-05  1.9250e-05  1.4010e-03  8.4907e-05  4.6570e-04  6.2249e-04  2.2590e-04  1.1780e-04  1.5203e-05 -4.6762e-01  0:03:45   20
  9981  7.1553e-03  2.1963e-03  2.8831e-03  2.7541e-03  7.4195e-03  2.9147e-05  1.9307e-05  3.2157e-05  8.4904e-05  9.4645e-04  6.2190e-04  6.2259e-04  1.1787e-04  1.5057e-05 -4.6761e-01  0:03:34   19
  9982  7.1052e-03  2.1765e-03  2.7021e-03  2.6182e-03  7.3668e-03  2.9144e-05  1.9199e-05  1.1770e-04  8.4894e-05  1.3017e-04  6.2182e-04  8.4266e-04  1.1797e-04  1.5000e-05 -4.6760e-01  0:03:22   18
  9983  7.1262e-03  2.2049e-03  2.9364e-03  2.6404e-03  7.3897e-03  2.9137e-05  1.9063e-05  1.3136e-03  8.4783e-05  1.3422e-04  6.2191e-04  8.5511e-04  1.1807e-04  1.5076e-05 -4.6760e-01  0:03:11   17
  9984  7.0085e-03  2.1589e-03  2.6280e-03  2.7285e-03  7.2666e-03  2.9134e-05  1.9045e-05  1.5599e-04  8.4796e-05  4.4912e-04  6.2163e-04  8.4701e-05  1.1808e-04  1.5074e-05 -4.6759e-01  0:03:00   16
  9985  6.8567e-03  2.1180e-03  2.6817e-03  2.5652e-03  7.1093e-03  2.9128e-05  1.8855e-05  1.2167e-03  8.4900e-05  1.3929e-03  6.2076e-04  6.6743e-04  1.1816e-04  1.4992e-05 -4.6758e-01  0:02:49   15
  9986  6.9285e-03  2.1423e-03  2.6945e-03  2.6638e-03  7.1839e-03  2.9124e-05  1.8953e-05  1.7212e-04  8.4885e-05  3.7669e-04  6.2053e-04  2.4487e-04  1.1819e-04  1.4931e-05 -4.6758e-01  0:02:37   14
  9987  6.9630e-03  2.1461e-03  2.6140e-03  2.5657e-03  7.2186e-03  2.9122e-05  1.9059e-05  1.3019e-03  8.4775e-05  4.3331e-05  6.2056e-04  1.7152e-03  1.1799e-04  1.5034e-05 -4.6757e-01  0:02:26   13
  9988  7.0518e-03  2.2041e-03  2.7292e-03  2.8676e-03  7.3125e-03  2.9119e-05  1.9126e-05  3.9037e-04  8.4741e-05  4.0590e-05  6.2058e-04  2.9603e-04  1.1795e-04  1.5092e-05 -4.6756e-01  0:02:15   12
  iter  continuity  x-velocity  y-velocity  z-velocity      energy           k       omega    cm-1-res        Cm-1    cy-1-res        Cl-2    cl-1-res        Cl-1    cd-1-res        Cd-1     time/iter
  9989  7.0892e-03  2.1870e-03  2.7100e-03  2.6175e-03  7.3503e-03  2.9117e-05  1.9287e-05  5.4400e-04  8.4788e-05  6.5825e-04  6.2017e-04  9.0453e-04  1.1806e-04  1.4910e-05 -4.6755e-01  0:02:04   11
  9990  6.8826e-03  2.1310e-03  2.5190e-03  2.5852e-03  7.1357e-03  2.9114e-05  1.9283e-05  1.3046e-03  8.4898e-05  6.0377e-04  6.1980e-04  4.8880e-05  1.1807e-04  1.4774e-05 -4.6755e-01  0:01:52   10
  9991  6.9366e-03  2.1697e-03  2.8210e-03  2.7659e-03  7.1929e-03  2.9111e-05  1.9443e-05  3.4380e-04  8.4928e-05  2.1697e-04  6.1966e-04  2.2673e-03  1.1780e-04  1.4823e-05 -4.6754e-01  0:01:41    9
  9992  7.1211e-03  2.2043e-03  2.6947e-03  2.6699e-03  7.3835e-03  2.9107e-05  1.9499e-05  1.4332e-04  8.4940e-05  3.0536e-04  6.1947e-04  4.7778e-04  1.1774e-04  1.5018e-05 -4.6753e-01  0:01:30    8
  9993  6.8744e-03  2.1571e-03  2.5653e-03  2.6733e-03  7.1277e-03  2.9102e-05  1.9390e-05  3.1970e-05  8.4937e-05  7.4187e-04  6.1902e-04  1.9706e-03  1.1798e-04  1.4966e-05 -4.6753e-01  0:01:19    7
  9994  6.8637e-03  2.1599e-03  2.8028e-03  2.6985e-03  7.1172e-03  2.9100e-05  1.9644e-05  3.0580e-04  8.4911e-05  4.7618e-04  6.1872e-04  3.0429e-04  1.1794e-04  1.4877e-05 -4.6752e-01  0:01:07    6
  9995  6.8333e-03  2.1360e-03  2.5416e-03  2.4958e-03  7.0845e-03  2.9096e-05  1.9590e-05  1.5678e-04  8.4924e-05  2.9989e-04  6.1854e-04  6.2459e-04  1.1787e-04  1.4773e-05 -4.6751e-01  0:00:56    5
  9996  7.0151e-03  2.1911e-03  2.7820e-03  2.6070e-03  7.2737e-03  2.9092e-05  1.9640e-05  4.9089e-04  8.4966e-05  7.5569e-04  6.1807e-04  6.3580e-04  1.1779e-04  1.4836e-05 -4.6751e-01  0:00:45    4
  9997  6.8864e-03  2.1482e-03  2.5569e-03  2.5917e-03  7.1396e-03  2.9089e-05  1.9649e-05  1.0669e-03  8.5057e-05  5.2137e-04  6.1775e-04  7.8274e-04  1.1770e-04  1.4755e-05 -4.6750e-01  0:00:34    3
  9998  6.8460e-03  2.1640e-03  2.8392e-03  2.6185e-03  7.0989e-03  2.9084e-05  1.9600e-05  4.9419e-05  8.5053e-05  5.9370e-05  6.1771e-04  2.7899e-03  1.1737e-04  1.4783e-05 -4.6749e-01  0:00:22    2
  9999  6.9493e-03  2.1739e-03  2.6929e-03  2.6551e-03  7.2052e-03  2.9080e-05  1.9685e-05  6.8752e-04  8.4994e-05  1.5271e-05  6.1772e-04  1.4110e-03  1.1721e-04  1.4846e-05 -4.6748e-01  0:00:11    1
  iter  continuity  x-velocity  y-velocity  z-velocity      energy           k       omega    cm-1-res        Cm-1    cy-1-res        Cl-2    cl-1-res        Cl-1    cd-1-res        Cd-1     time/iter
 10000  6.8703e-03  2.1588e-03  2.6284e-03  2.6579e-03  7.1231e-03  2.9077e-05  1.9571e-05  5.3079e-04  8.5039e-05  6.9505e-04  6.1729e-04  1.0797e-03  1.1733e-04  1.4815e-05 -4.6748e-01  0:00:00    0

> /report/forces/wall-forces yes 1 0 0 yes "FX" 

> /report/forces/wall-forces yes 0 1 0 yes "FY" 

> /report/forces/wall-forces yes 0 0 -1 yes "FZ" 

> /report/forces/wall-moments yes -1.1323 0 0 1 0 0 yes "MX" 

> /report/forces/wall-moments yes -1.1323 0 0 0 1 0 yes "MY" 

> /report/forces/wall-moments yes -1.1323 0 0 0 0 1 yes "MZ" 

> /report/forces/pressure-center yes no yes 0 yes "CoPy" 

> /report/forces/pressure-center yes no no yes 0 yes "CoPz"

> wc Medium_Ma_1_10_alfa_0_10k.cas

Writing "Medium_Ma_1_10_alfa_0_10k.cas"...
 7516704 hexahedral cells, zone  1, binary.
 7516704 cell partition ids, zone  1, 36 partitions, binary.
  170527 quadrilateral interior faces, zone  9, binary.
22284264 quadrilateral interior faces, zone 16, binary.
    6912 quadrilateral wall faces, zone  2, binary.
    3456 quadrilateral wall faces, zone  3, binary.
    7104 quadrilateral wall faces, zone  4, binary.
    6392 quadrilateral wall faces, zone  6, binary.
   45744 quadrilateral wall faces, zone  7, binary.
    9408 quadrilateral wall faces, zone  8, binary.
    6392 quadrilateral wall faces, zone 10, binary.
    6392 quadrilateral wall faces, zone 11, binary.
    6392 quadrilateral wall faces, zone 12, binary.
   92544 quadrilateral pressure-far-field faces, zone  5, binary.
 7612038 nodes, binary.
 7612038 node flags, binary.
Done.


> wd Medium_Ma_1_10_alfa_0_10k.dat

Writing "Medium_Ma_1_10_alfa_0_10k.dat"...
Done.


> exit

